gAAAAABp0RRo-AXibgtuMHyE45pIwwkr7QAffyztKUbBS7D1MQjAEd7k8c0pGTrlKtsrVTP0W6_V_H2K_eH-4GrVL8L6Nr7W5vAgrTjpeK5fNsPp3QWr_oJc1CIOXRvJoH1M_yqNUAzol2b966o-FKMiuQvzl6GybGMtJhALuhIJACBFgPaD5eXi8rfuJp77_8bU9vgfCcGBdN9u-tPdccM7znjXK50Ph71dG-OIg1RxpJquuS6iMXTjoWJDnxbgoxGo9xuFSj7q3hCEtka989Y9e3j5gtmhF_N9FPwM9ullTszjBDPaoa3ej4A_eT6KwowCczaSOCI3c759pT8P6YxsKwOKwEZtrOkQ5y_T8WbBRj40aU4xc1ni0FJrmY3GeKgx2E2SjTqnD-nMfNpYQucKb_DQrP7Tifuqntr-KlGNgqtHBnmRVCQBr1VVAoCOpRwgIaWwsipwpXqU3RgsMwSSen2AG34cKXZe8PN0gsTYxEi7uzyH2UtLhu__NpqpNsSxAFKg4_6_m4Z2euzbiL74oAfhkq2lmDYoVjxCM7FefmKvHR_c1O27NsR7q5voHlkw7SyvfkBX8MvIPmWYJeST7Mb_msC-eV6vTizEqmVuXids9YpdnyuNYVJT4kig3e4haoCt8Dtm_E7mpq0JYTvDJUjwGR0ERu-VqGx-QeQmwS6RaYC8o5VOisOdlrzAId4SfKZedEFVmGamQ9vHvotniBqWecC00j_BCah9fkM2Og35gv32GNy3hOTAE8rkTLzKiMiwSwMsgFiOMiuP5-bB_Q4Xs9PvgXpmOR-QPzjbwYXWZtojii8AnKb-kx_CYNZLc2kNeyZD13sjemNOApai5uOAVxwfboqq7bSRSqiBPamKQ0Qz8DxlqGJhfAgueMjnJ-y-H8W9dv-0qW6ubZMTQ1XGnMwsMmTAXnG4FuTtcwJqs7c8JjjaAlcSePv_A3HBP5nbZUr5p9OVTrfDbTOIsFESqEMELidjHULfPItQ9dyjvqEMl901Y8YkmrzzKaUddF_l8vcXqswECHhFAkbF5qwY3l0rYad3NzrvEl3PtMORP1hU-MIAVEdw6I-tHF4cLgW3JTIbd7fRL4FMOPZnF_btu4c9Gmzo5KC6umXbfDkCqw9RZQYSCdNXfjKnZVppei8NQDpq2773E-9z47iURTWe1oABWIAHs4t0NN-CeyHXymbiRmC22sLxv2eSh01HquwX7y-gVSNMIdS_lYS2EbDjG_90EGhhCCZY72YjXFRlQDy4g9zupe2d1AyOBDHqV8Rqieliau0eIVQ0bWX0rp8ls-dYnamR5d2r10lUByuGxeTgPKQ6oukWd3OfjAGtzJmSsn4iwzlXMGsP1KDlWwgI0FAaouJITU5e4VcZTcEtO1og10akTFy0tuiNXX00LJbIOTLGXfCgu2cp_XZ_6GFZR_8d5BWYgnInwAS5EfMzevhAGqTxL3hqnRojgA75qhsCj9PGgFm_MsEmacBuOJoUaNKV6dTBHsUfiWKuSJWGnTkKeLgQrA6y6hGtZL_BwA4mzBfX5LVka5K_8qg70EO2YR7lJQmr4nbr-qWVhICLdZMbbt7O83TrLStrAm372POg9F_1pYC7CbBX7bQUXpWBUz5PrGPjJFtkjZ8B-hAZfKiL_nAJ0CcxFUAc-zUwvSH1hDmEbFSWz1upKUCXrmWqiMBv5n3m1z0zgrSTVUUaygPO0ngPMd62JvJa7gON6sLcdgPYLdRAcvW8n4mx62oPposMxk0CVQxFzBx2IzLBT0vQi0GsLYSNIl62remLQBXGX-Bm3xJjaZ7pNL9csd4IHER0umM4ocpSUxQURjSsJX-2Da7yq2SPoq0G0XmtijSCpnxKiAYUeMSr_MRfFDk9Yo5ApVivl5Rjf73XMpaeUNvzP8THA4sI6GbpXVg_1Ob2ijGtpMnzkQ8YozW-yN9BqiRsd6r5-UoNPcD0YrwBqnr-CQS3sgkIfFpERNccOGHLOIdUXbF_PAatSj12fEmFhuUPuhArXqAimvu7HgmYjI88pnMzgrxLjDPi1Bl6aGljYVwxu8zRLdndlW185BxBq2kSOrfCmDaGzySKny5arrOE5aMaNbKwtt24_elomwclyx_QqIbXuXn6FUvv1u3zm0kPJ8cZ8mlV5Dd7fjOTKLd8xyRMHyCA6fqDcDmQS0eTm3CsSiO4jPx7n-L5YzwtIxlstbdb_kG9hVijTqrKT6KnjOCtAXhkYA4sJuRIzUpvIhnBZOoSVXECM0C0KuFMdsb6BTuKp4NRMZ5paaTcNCF9y0BNPZV5oz4KLJ3kxX-mNGmu23SuQi3IC0GugjpteWrryti9sQJxcALXqPFwYgT9NbOCpQYfm1C1R_kvGuc7jFaQ9f4jK2qRi4Gb-fLSUp-vEJcFJ1R-Ko96XncGeVHUxA5vdv_5Udmn5ZQFqXHiaDNLV7Bej5RtPilH6-v3FhJdFH5ESy_ag-4tLvCy0brTMuIOHR0j3r1N5co8lIsxGcfa-YOIf8W3f5OLbN5W76MN0PnToBplYfa-eHolKQUHspQKKlfQrIFFoUYZT5nYQszWw2WM4xp2NrYpEIFXpQ-H3b1cr_ywsrR8TNNcke3W-OtIgdkkQxAKMLUT0zHGGVfMAd35X9lCS7GDOMzxwVrC0CZYSCQnIvRLq1psqv3ycoQR4txmUE73iSjDJl4oxRJoWz8yW2_iE4bdUtO15PiX02g34as-ujVUjUa0AAlHnqVDTLQk81HWqYdLfk08j--OqiQBIcBT6TYYsIyKNZn0ri8BNODUsR1vQr7xpDJsStVz7zXu7XOty_8wKt8KY7QSjAa4pKZT_DxAtYdY48_8smsuN5VQyNDHFGcidVAxI_xdyYhzPzMMKFQ_wTatlZKdgk-pTp1Wy_9CjaW7LWrcPODMwWd6CatThSh0Ct8xEiK72aTKbJptwmJXc5M3KWBe1s6JZ5OLsjD905WOxtRdcxCIqMfxI-dl2TnHRkC95Q2HYMy9b595TeBkXwzEXomiD8Lg-kJhPwKJzT5Z87Y7SINH4A9jBj8qxgKZrNEEoTdwEPG4anIf3hGCE0HJm9tfSAe0zFmuv6WU8e4RnxpaOyYX-4a8vR8R0X4UG0AITyfTwJTcqxZz-okBqwre0bF3uumm1UdNakQcxw3vq_Nseehayh_XJB15dgj9aFSTyNTBKggXeEXTWA_x620_J15zfhxITHxQFm1u7sl96QOrD1N9TZTCAGAJm-UYDGvIQvci-5dPzd4GAZpE9zjLs0ibtpomS-m9pOVmO6azJxMBqAX-P4wbDVINV-DVN_XRQ-n1sl5bVWLCm3yL1pvPdBosKkC_V0j16c2lDjvo9HoWKBKlJ6jwdhV9mDUDxPvzWQtbeVm_dtkatKeW9pjTpjefYg_BMTaTCvpbMY3zl1Aiz_8-d-QITJsIwncz0QWaX6JrqHkAkNoabpEP_ia3rAcxnddVmUzmpjdruCBLGJ7ZHRAK-IPbv4qTRith7zJVicenvkxiF_1llkUZs82gkgpFPL-UbvGwZqJ3Gzb5YbQ0JJj60cvc16pzQluc5JrBnCtKudaY7KV6uvFeBLvDh5C_7MLRqRohJi1apjpMnM8v298ILZc4Ce35Ea15ee71BjGXYkxXjqGqEYG0tUh3BW410bs3bfphnMhkB9utaZiXluksdTuhNKgy5j0JQyIH6aBzEwCPe2ltlmj6zWQ9kf2IsRYFYquyBZCVWmql4BcfgpmsbhH520zyyao4j3aVqzAMTWRvBZzBsX_NJcHp8tbb1IXq2UC5GUFAaY0dHJC5r3bVoFyf_e8IoPBwIKLUB5nyVkfmd2u03-g_7zCoig_3-0cUyQQn9c7WgMab_FCtKlR4lZgh-GQfMKZUvT16_jX6yfEpYCqxybqztMnEGHc5KpjsdISoiRQNzpr5gxahnZPYrISSEHO5DInLA1wuR-Tcom5PmjFZ7_xh3ULsrin3eZeeVZV_8SVygPyjSqAHGN1iYZgOj9QXwpcri4DLLirnyNdVuYDBIvNkAaUAR2OcAq74hSyQWrhvXNVi_21hm9frV9Sjd8wNDyTvCQfFokkTqNZQaz2sVVwnAR5q9IHwn4xd7V_3GLJr9Y73EtkMjTX6ZLvrqclWT8kXAm9Nat_1DBmbu1p0BVXup_CEcf2__HHjcHMnz96Vc1dfNtz_UWQ4waW7RFL_MMBODKCzjxNOW2KDd_yrGkc4fgT-mWtXvHX07yqBFiuC4dn-D-EbxRkPRHIvMpdH9IQJw14IbvkCNbKVOS1a6ZC7YpTezrFBVCHgNSrmcLykCuO1PxAmQRPdWZ0RUpzC2Fir822AHGFfM8a1im6EwRjvVpquMuuaWTNfgOliyUyhUnwwOUDsUM949kzuX2j7Y2A0WQyBh5bZFTnQI-XbvO6CtGafS15Yww1Pi9t0Oc6Vu87onwMCX8ZaGWyb8-M44RhipVnr0pnJoXjDNRTs_AAQbCrB9Bys40tm2bWar0lqLSzU3iLlEhd6QJi2AwLcv4xWc1n_tae2wgafO-TYSrsRT0mU6t01QpfNKf68BdnBa76lG3rLEQCEpqpJeXAdZ29UWFBX4nrkPDHeq-j35taowM6LR3qrUArKwzhe6IrFEFZGZuP-ygxp8O1PfyddALrGTtyHCgXOmEL7hEURAW1MgghddQ8sSakF1CSiAoTGubI8P3xoAfXbyp95ZSCoWesV8nhZqFaQwm5ICOh_l32ysP0hujsXEDVxBShsu9FQV3h5-sTx5VM9S6Jni7jSMzQCgVkYBOT-KVg6ZhueRxXG3nBFPJ_ZY1grnJkhquOEqcymLjcMXvHlM_myBAq5cxKoTC4KKds7EcVLSNILFx7TvvHTsToUy4U5f83oosnSjbkpIwuwDyHYa0WOLqA8f459QBDy45A68HeCcA39awPH4RcEQAXGekCIPvFqh-ecCMrM_TbIJ7RIuqkdyyi5-0mvyWa-hx_Ep-89qf0KXXUgb8chmvHlGX6Oix19aH-mb1Wb__r4m8zNZFUbdGTumhSe9CG5gkK4drHJvpcrd-fz8S1G6zqPHBZMQgFy-AWqhbCXbSkfYQg-X83Dh4f_VKk2HSdtZz6OkYFC2Rw3GBqW5zIIXCT1kBk5kYJqcN7yc0tC8UswTKjedTR-MQQ3G0hmBSyxhBnXSxY4sqQfgu4uUGFp-ASvx2IJBgF1Haxgiv-xOdkMehu9o0yIa5qpkQ3KI8ssY4aZ0NHww8a4LqXecnHy6UndTKV8oEnr_v9oKzXqTY_BOPDLco_fxD4wkezzh2N8wPJpYvg0v6hu2PYyDs0mS2ol2JLi63QbG0GbEOycYii0ot9C5jsgRuXs99kDd2A-XT0HcO9Z8Bkdpv8YNGNseBbcwsxkn6DA4viNrobCP-RU3r9YrfQSWkulGyomnD-BL7IAU4x9JnWP39ImJPkV4eLXFsg3LvTSozzOXISOioZ9xnUd1JPBjbMRfRBUeXGo-lvjjOUHFp2LiURe-n98ht8z29sCy1shSNt9O2o9PTAd6v7JR4eK7A5EJd7LudR5VsTX-S5Guc6RwGmYzPnTbzj0wrn-uVJYBBWoQFpJbYlSxhBiUR0h5b5TBOrf-I8mEXr3ePjTqJzLCV0Z9azHvn5mznfzk1SC_PAz5201XRDehz_luXxk4n_efhgNi0FS7OsbD0mJqXLT2aqUoEU896Vjm-rm8mS4UqKrUF0SncjBQKj2ZP2TUcKn0RnlTllknxv1LWel_zkX77dnAA70dmbS4uP3elPs_TO-CByukM2H-A5iK49qTU60XhXaqe13z4iy2iKt2zYWu83U03MkkXnWoxZaXBAWJbZKlB5kg3r5bkW-YpZz8Wknjnbi9Mstiyux-75kR0U_glTA72gqMixteXeVUjOnR98G_Rn3n7aIZRsXOfZQSDSVexBrathAN3VvuU7Ucf_PBUH0rStYomXlde85tCK_KomlkxkoEUsxhS9T4OAy2Garw-H0gCrjsP_LRSbNcfyTbYzU4zUs0B7B2T6HQBKpSVmdzSZM9IhgpQISG4p2dt5QFg2rZTRPSshwq0LuBTF_cv19qnvl3ZZaWmvwpDfFOYXRBOxzjH4ubaKLYjnTjPBO1JCaVitxVN4yjkjXbjB6W4mZSlwEg5gLh7-wvJgNeKYyCWxJ68PFpMzgZyuF4iiA0JFG75wYwPB4SIMfZaSeeLcQwyvC9MiChHifpHfQdCi8k1km0u5sBbGHM8GCYOl79bL2_QUGqAqcVLMhKuNhiMoVSuO3ejbB5vpWdgKqHv9nZ3oWPLCvIlRJRmsTdJatcFCTAXIBvL4lciXctqFfqcvChRYDpgMnThnR6a3hOlSFvdTwEttmNQFkPQffrE_dRCXFg4Q0wr8O1snZy7_amaKRfcDhsSrU2nXvbu-WnCZVPJmBK1oSyn0DEvKBWIEW0lBXlBg3u4i_pWLp0XxJUQn7vQ6oLjAlTXUTS9cWO5fvfNxFT1rYpmZZx_Gk7O7de0soNQ2rcQg_RCBsMwZjjFYBzceQdYnIJR1e5t9NLxxomypzKvzv2_h51q9vB9AKd_wTN_w0XZ_lhnNeLi28Y-nO753IAAcOYwFAN0arzsreVaVkXSckl7AlbfYnOiAjrudBtwsR1I8czr_MVTJtb7wUA0UHS3zv2pyRrSFZKp5Wtq6MWEJCfAfEujaYidycuTicJLQ3uIDs5QGUyBPPFKck6Yi3AscnS6Q4ouD46PBLkVo6kLg-TtmcRMGDtvajLe6RW2iOqmY6UQcAqJd15p7s0JDzMhZUn4mmxJwploaw0llbMuSPD0w4YgYFEnOXnhaD_K9a22hQzKoDliWkow3BUmU6BLHBOyov_MnZNb342En2rQI6I6DGgFwpUlNMg-L1i0Tf_Q5z30NlJQy17eTawQouf7V8_u3GFLZ281R9-dNE4J9PZQT9wxN3pxXkJay8uOaCliehvmdXK1yZ8voWzGfCbN6W_-69v0CT0ciQcGde_31Jld_7gABvrEdDCrNF01C3-MJDD19Z4RSDvJmPk8I3OshFiH7mktqD2yFL0eMAd3J7wGTUTERBAGX-wEAqfa62B7V3dMr_eJwMrTOeyZkHKjeC0WFplcnBji71JmFAJ-my2pJ6R6xujAA_ebTBG80bjm47H-r-I9DhCuzS7cBfQAkHzfIQ0Gn6iETCj5LIckHqUVVZf00hgOS5IrSAU_yPiRg3JTx1snPDL33hp8AEh9RIao7OtF_0TrAa2cfW4mEFmbYPIKmoij5CFptklhhLi0M2E3higWOaD1zqpGH71UWQnnMVTE5skoq8yAud5klCkwCss7kkRXTDcUJOuy_OkX4znQU03aAokjAKFGYz443UpxEBxchn94l501dK2VFypEFp_vIlrHxQvBAm91BmZC5LVcXyhnNc1hNv1fqalKPX7GCIpJgodih9jzd1yMpE9lSSU18fXMfvnD-HglFWq0mBcolpNurkRZCSCfXcsYQmBrbVw9rBmv3p4eAgR8wJbbIq8L9TloY53VVtDAjAKvZranWq0G2VD6SdTI1UBw72sw3LKd7hJ3TFWfo_EPTga6iN7-PtYVspz8S9qdttAr6P_AopP8eo6uTZtwdmRwiPjl5XOSVipQtXAK_eCOEXsRkNoZXRHAut1zM4UbfeTCNDlgDDZyH-qTIRLH8vU8enlfvoF7vMpqRSqf5dRvBaNSTz-DFxHyFf4CfS_wupyxoZCdzfbElxMp4QLISKxpJnQotOBvoGrkpcxUncbe8lrC7KlOanG9HncsGRa-2JXSMnb6QQM_J7G4u1HofAL3QY3O8kgN_5lvQzw9_UnfVT-MwhYG42DKwvhqG_0rA3ugU4XG2rsWrvRmt1j9IZY3GjDSP8XLBql4F4VEZ_njlm-Hwr1so7eroP16vd7gSkGSjxLPUTe4_VjNavCWqPVZG3jCmdzAmAeR9kvdLC6bqWXSEd2Fl-CBLQPDQXnirQXKAWhqRxYsgiRFDoYDw0_gTDAI0TNgDRvLbAt8RingBWq5kwCmXPcSZZsE1UVEnkJV7Fo4PEPvagi3r24zXITtp-P2NYb8chZudsCJUHYW9mLELZAnUtScfGacZPNxUw5xjHqSMRUUN-T94yVU6E6xHRsCHXRX4NP8YSsjtsP8LbFnmiQtH57vSMydOU-rVzqIEOZKDcD_ohWb1AHBzXmHNMiJ3bH8DgOeDOzdElTr23a4khzAx6L_pCsWypTjdwztA64mgwhHwVPdwkle9g648CzY7S3eAhF27djXyrI14pBByZrTxuXCJZ45ER4DGV4NZAiV176Wh7SpZ1ZNX9i7fLJnMbpbPZ5HvS0iH1s2TiBmjxFeP8OuefZhvfO95kq_oTdWpbV03d5_6aZlBmsyNAIjLE15ESZc6gT8J2c5OYYk6nifOW3ukGEQ9N1nCIhMluXOkEuy3msAxTCOcXXuz6VXBaSCecBUAqg_vU8HocSoNNfz9V2i6XTl8NgznV3EfEHlJfetdWowr7iXrAZu6XCCjGA1Khqn9VEZf1t88z3IDvyk-nLY34UwjrpPXMvkcEH2HhFCgzwWZkNATyX47rdNjuz5uDt2wAKu1KJWamrdW99DRqgB1J5vtIVZ3LMvBxU2qcCSdrk7WlwTiuN6OBZ9P43q8B58_0wChOKgNh5Yn1mBXDYuLTRNSIReObd8sjtyL5-FlMjuPbfpdagqczoPvOYngJtstmbUj6H8AaprpOk0tBR2y7dKj-sr8lnnH6N47C_TpSAuDh_kLPG7eZrtnfR0TLf5Cs6NOo66vuQEaV2_ebU4QKhsv18Xh1a9Td5Q6eQpI8vXdZvOjjIM3I3aArkajeEns8AMEwin6uQa3rDqF35BtWTqgXg7WGK6CvTzRXTcDL21-myPNPEq-TH8yWrI_VMb_Z80Mp8WqK9Bw2pSOwDbAAlO8MfKl3cGlw-xVnooZez32BAWqSVcz8MMN35fpGO93oVEKO9OiRJfxyjmcMZCkaPeEp53-nVUeHkU6DnugMthvwmI3yOUoaR-g4HtgHNQJ9oaXGBY4wi9CU_O_-YViewH3pFWJvdtkAENLQ6lwLod86nST_9yuvjltAqyqGwKlxdfrlUqydXMQAX6eQyhrmf1-IHDXgMbjrlZx-964LyNk1il69JMlVbQuCfcU1tyjwc9d8uVuPBWPhQ6Lw81Ny7OpSk5eg-YxqPnRGHIYEJRPTdpeVlSdrEqP-uZvfxms7Q310o529yQ8NkkyKzGbpRWKikw7EDt0ZwOuaQwYTJlkt5XjSn8DPVPUJ2r9e-zoNcLjFSjiqQc5M6FqvRXk5ynNCivGccERVrNLkVUGNr2UVKWAH6c47Y6stXxb1FoHaNWrUiCJ2JRsv6j9i8WGk07N7ziX45r8DFA0f0tMUouM-DopwnZYsIyS2qYm3LD8gIthCP8vIhfIB_TIvkN9UjYP1WS9TjgX4KiK-8FS8To_Wqiva--9B6i2So4IMLfjHDnw0dmfX63fShX7uDkg7EHpWpYeuS4pbSb2T5N9bOuth9LZ-a177SC5-TkhAoDxnrKRZXZjdL0FFpmbubTj_mIBSerayHdu9z-v1mxklGLES8M-jgyZJzJXXqb5XUZrQ-9iYCyjZxx1hKv-Lhr4CdJu3ZQuPKa3bGUGv-b8yAd9abYAAeJV3L5GyIx5Gpj_YCqOZ67dbqR9PIiuWMfedzRapJ_Il1-zVe94JVDmAb135yyjvP8vafof_FWNPIcwGJYZ5p8ErVVWO4EUOjaKPEIF1woEHk_ne9PQBZvbbGsM4ISJYuCDV5pryJGpGEdDxRNnQyLsY4m-Z2RfAAavnDiDI4T7o2ynPYWo8HBkqjw64GmdgyV0iAtuKjRsKKv-YM74BskvwlemQOT0evZO36NM-UauuskTADP8ACkQor3DFE0F5Nluroz5zQRu61ypSid3-ge90KKF6pM0NbDpWbyBD86KA4_nWeZdRzxG0ur7kHAbBAQBg8MbBsiTpHjob9K5VYOIb4OltkbpHOOHvv6iOekES8p4PQVOS0ZHy0bWMAWzWPrY4U0Vq7ovw--xWDJGxnIzgq5wCOe8tF5Fz1ziFbSvU3uiYGR3MSk_GW7kIQNtdVb2iQhDCzv6c86-AiAmP_YeU_FYzySvNXaMUkIirqg55UUlkWXrEL0mDbU0x18482AY9vhvYx1MHxtXBDAAqu-UHEuqMD_XernFQxD_9HP5N6IbUkK3209ikHxbPZotQTY-SwLhpPhzajcj5XEw8wrmqdNEcx8RsSGRX_y5Gw0G_5A1gRIsgMo2GD1E2eAxcvutMevl-AJotF74cRS9l81OHfSBh-xkpYMaTNqjiJnH5iDZuj7hZvWWwPdBTiBocErL7hRZqSpkx7dTkaOnk3SwCNTwail9VQrMTtmPDM0rkLAdVqJrxNxqyt6CyAiphP5PYo4whNIr_hI7wxoxMtFfOctP7Q-QrORAnzd_f5JZ5CrV2lsL3bDGbadeHB77all22TimH7rclsJgRWtGt7urPAFmZAJ5FCWT-BLewNTXSJMk9jKviLQ-_L84ag1SRF4gaKxN4WVjtwEAWbhL29cmaVywwQAGWr46H2sXJyD7rQ4aCrUdHNKe88c93WdkWuS0lFwhG-mhX9qqA70VSV1TPbhnMylM3uCBrnaDaC3ZuY-KyAuV_kA_lU-IXPlA6KiGIlScm4_nYsqWOz1d_leB2Vv1kDHhXSfRU3xZa3q8xrKW0jh0Sg6XWSzV23g-rBpw19ls7NXfyXk3ciyTwIGDfaYcO69KRfrtFWlQEnOXk7YO6QjoT125eQ5XGZ_Y-iPdsZqLGNK1CXNyJUr7BeDrOLYB8oybY6BWTJo-5YjUDUxlPtaMY9Uj4nbg7Dv9C4DuBRHSSUR1TTabUJk0GBAThHnnlW8_dPTgHqyjR66oa9T8mlh2i68m3TCS1Dc-IIpETuKCFzG8PYq54-cB8VglyyhldZeDh6fZZ2KMIKnqEk--v2bN7ST6T_QGjdp7l0riugZdY97e8_9wnjuVHMcWtn2rGI_bqSNl1C9Nd15OblgwwCHKs5zPiHCbqEKlGQfYQsF2VALkgUMFHiOqUaSNguEdAuW_jnyBvk_LLFT--NOETSxzVeDHo6YMmERzb7z_xipgAj_L0ImjULccC5SvwJ_NS4cMWL-CaJ4r_mBT_B3UJ_iOGirpxJafUXIhsielsFJguIudJNc8EeJk5mkZz96sVWvzhUMyO6xxmFqHftVjrWu0WTJGWDEATo5W6CKgIbRTKHV4gOV4MehyNM--pw3thPn0qz_MLXvVVrzSlCDLFfy__03IyAzTLPprz9-hVtb2CJ8XnGU1YNR0QVak6lSseEQvF0kxC1Fh5hYC7rHw9mgJxBiDQiJjJMi1EdYx4lgEh8wPL5pAieD7WkG4Q4JTw7y72RXb6_SWOaBf5N0hZ_wlDvv3ZPK4yUrxa9u8LNPiX3NGtDJyvHnppxanQBG9u6_jAVY6FKLm-T_l9B4otzfukd3KxvU8ypd2qrcZiSdunIG0WwvqKCMS2A_hih48hitbPiTT88yJt1SlkOWLirU0MrGAYdUa51NAnWvBdnruEgqEmJnEU6welkfs58C0MffTbtBBHX7opPVT1G82YGQPv8cVQ8A6RjqCr5dMU4p5lF1G1H2BZF_RoBd4xcdht7IseHcchfQ51p_SjTDrzh0itS6xEGFEO6Xl4bEcAd2DrnrnsBtzEOFCr8sE_evvfHcxEXaDxVA1nWOr3Mqq4AJwtRNH8URfy4E29mS56-IXYBZDnuJlkY3OXkyXg4hoXQjklELM4zP2GFmjVk8Wkjams2Vz0riVWRBOTtV1jN48Pn6BDZvszXAxeuNzdP2cvVy3HqKEmTd1IxLYJqtzqTMHx0Fq7ECC2QWvrw8PhO8iMYXj0LYwI6ENlE3ySozxxKCYUSIzj2RPJ3fhHHOTIG7Nc3xnq3skI9bXSCoV9kbpmEOWe6tyAUMkYjYajDZpKiAs_RAfGlmwbbaIfsdMzgbUCwbMQsJAqUlCnLdcd62dOg6GaDeAYCamNIjhcTfp5K1kcTcX8VDIEuWcA3XU4zEzz-t-EXwss6PyiIYZp5jF45ZUdQ6prYB8OzoKuy7jyWaeJaUKAy5MUsPtKnJGDeNibw426UntA8qJM97AehFIKx761m2bEomFK9QBukMqtdcV19FiGqtJskZzkFP7P09Hw_AkVB-AnjlBfWDBdpfgK6CTuFr_EX3fHJ-yp8j-6KI5HsRnEsSglWcpRXlCmKrawjj0hJTLHHrjv4ZNP2wmUb4zIPUYX2LA04m6vpVN6IWXzsydjhlckBTu_5VS1devZPrI589BRWO7y-d5r8Cab6aK3skpCobY90FnvOVaG7RyGl_B4_8KJe-pSKzQIP7_bY7YmCVjtaJMZhUiYs9KSCcaPTNhPx0yVIFJNDUgEbBD_poElzBcBM4e4oP_Cpa8KSE9sPbbujmbVI03a31HQmmoJEhDzUSRK_dJcrG1Qx27T57kgrcwofeSPj_wa9uww1Q5d6snmy8EKG2q9HcFhdhkxvEsWN605JDw56GODICtSU5goNWlWSnup1b6j-P-FoVwN_6ujdZO9my92dtaTrMH0tV9b7MVcsdyMOu_05O4cEKEqL1wfrMIfWKd8dUQBqnt8toFOCy4pVD-oJEvTJdCmHEDXad1Si_Fu1BsZCLNlqQ0u9qas6FFPgDVQRL3XLeaoaKuvRyAghatwzf0GInCDGDLF1ahILQrupS5uVijUbOnTRBei678HyN4q4et61jZvhmnMDpF3cgoKdKwX1iVk-o7XFP1-HPiW_lODJkdkC07KZ-d4YbfBh2vz2PZSvXQJ1P7k5cIEDJtis64opJwABWhR1Kt58NrbaLUJNJTqoQYxvjRMFshoTfMOn3tql4O1-Z2PEB9ecQYv88HU8UYpFh0qWTstkF3KZtRUsKQZuGEUFxsWV3logfmeonUgZMJSSLHWzn2JRsq4GEfN1z5uLAu0NHvK4rQ0oaZ1PzDqt4zsehv9_AOFmie6GNe6ItN1qOYG4zZ1yW3QZZAGegdPdYpdMh78_x_07erqyFPqcsvBm3OCChOqVUOx91jsg46R9uggWtpYLt9P2Q1LF0zITyI-vw61G5sPIGjf5CJctilaYGE_bhHLEmzX_eFRd1CVcKbrfz5l0P70kCC43A4dfwVOgE7EqInI1QJy5V7CDH68ig2EG708nrMae0w0KkP0DMr0aogY3TaQtZ7tsOYly-mV1Lwn6BkXEqRwLr8pWHXFQBBUI9X25s9_Xa7GCY3Zc4Wakku__P5fEaJ437h2nYhdY5ncki60dVHrzVaPOMWsQW44IY9IUCQSjb6l_fFWh3q7W1RQ4fvYfFgSoSDR-0F0qi7lRVun3ybW3Fs7AqYKpmoyOyHmvCuIRD3kVAl6O_ZGA_SmCMZtOOCDow6QZDVkPqok4IuzxqjRwjiHLOYpHh2pbkUPA9smF6M6pFPW9HNSoN2gPC3JZ9Z1n9IX38XprPYA18ueRyNi5bgvx98LJy3Qak72o6Z8vZtbMKshx0lmcNAPUXbNsuWtazJ17jLXxfYgk2hsYt7bARsaR0MZMn4KsBFqJas9q-DhwNzypA5M3Z2fRfFk0wXJO8hkIi9cTKJ-TjYcHtytowQISbBFkhNI8wgmgQ_8WI0Wr7eir1RXfkjTQ-TU4vqw4uAI82iyIavtsjPJ_E1ZgK-JGPxxkYJuBaXaFm86fQjb1oesH-mdWR6KbKLYId4kGHy90xCryW8v-6rTeG6Lr9IfwPoKaNrhvX8_VXSKTT0AuGzk4kWmrPCPILm3PphOgzYqZqTVPgCfw5ZOSTlybE0doSHefNQQIxmV9PhiTmPWda1u28K2KEjaaO6ZtBAZ79U2vmUGPZZ9WFybiCOj-sJ55MBLm42f-5js8JLIv-epiJ1irH83hfWjdqQT_9eQb7OmGvYraa32WntMAoQUnfT_3lro08H_dGl1--C60tGICoEJoJzYrCaJpyFixf1vNPfmEq5fCrguMKYhhpPjkMvQOvNmGP8EmuoGNG8ias0o4hkcxpL4dx7ldBwcLDxUl8DQIgE_dhPnw2WOMQynK6clpZ-uRPeU0EbjJM6tQomAJNgH9zMfqA5QiJTsVWDXrZAl_oWJ_CDDSBSh51Zx6XMiWUsqd8sjS6VJMpkcg1YtbzDrTygUpvEX-AYAlbXSZUib5pc7KNvp2kvX59jPoeIbLNVI7K30NsKS7nu7UgG9b6R3d5eauZM5MtECdW82ju9FwPuuslfHdmvL22n2ld5CgZI3q4Ou9U_DxVkMyr1PDD1uaNtAI9wolwzsP_lRVsyumxIn_MA8vi3HyqvnYh__udchsyxmDvhqsapW0A_Y1E5d2Kwq69TGlSme0cvdRlWP2FbOt07zolEsCRGU28vp36atahrlRwGYVYeBtAX_IfKxH8TP1Jm2JJ1AIrHdJ2qAvEeUUFJzLortZrsrCqsxApxePj8KbqicsSztOWFTpbJ6U-SlNPXVTQDfpFC577ZZ0SWMRdlUwdiNjp101S93Hp_W3OUoRToHs0rvEuP-D2pAS8sjuwPMoPo82f9wQ1GGP3ahz7Vg_BtAkL_0u4l-hysjNU2BQkT6qqZM6rXeuROwiL7PfbNwD46EI-WFTrAdCbzlfWBwr9YLIDmdp2389YLbjnByaZ4LYSfZTAIHP4syH_aDdjRuqqeY3-KAfwxpmKlACXoUbks_m7nQvf6p8WAdEirbeZut3JN06qLCV6X0gQ39x13DR8X2CqKvkFOYv1iUEyUl3TUzENw4R2gWI8JF7yqKD2DYheZZdWq8Q6vom61yLphZUp5PKzmzrbuI6LpsRwpurVndpZ9lVjBuZshhScNSunyVUtUjF_K8FHm5oCj8BKWrPhxJ0CQxmfq7rmlD5z-_aT1FCS-AIOPFaaa966W8zHkW9QOxOIOgrRdovwvALRV3yB0U83G8O2yeYA9Xe8w7UfVUnellAXlrbPcWqD0Ai-4-xIrStpWJcw-EH5PfDUBRyCMdxfMzwa3ClkcCTsyFy8i2jb5pTILNCdS9cUS6N8lHBrR3C0-6OVzxrs_OloK1nQ4uIfZrCkSY2hpT507MkH_P-LAyffCCCC5_GDvUIXSWfd5RtlrmeiJmb6KTUKH5qG1Uy_TIfV13W72aUgnl4nqoojNl3cC0ttGL2b8kXPbOvp2Db-zehksSweUtliLbbzswy3HbknbweeDhTlWl03ybwrbYZZ3zh23WYXXaf7u9h_cLtjrDS8ohQZVIf22PtxRGcWi0qui_z0bfSC-x8sOvK7TzBFk-jagpVbSALwMlpfPKnxo3uYOMn2Yab1DmbWvUDX1UAerl0zOsKURZ5jxoI1keAuqSohgwhNc60VtejWr39Mu3sNusEaOKyo45IGAh5ClNQun5025o5_FIBcO6-LAkGg25Ar1N9cIRdlrN22-UXMDr503G9_efJl6i9XcCm33jD480QwbpEMrKDckPCn-JPG6LfFurN7jpQzmj78AJ2vide5sIJp1eH8e5NDNHc3R9S6R3NIRIIJN5jwLC9BPMTj4qCozmMJAcpobGINUWRu7ghyp3CTC69Wpov0I-iEM2ro-Irwg9CfhrQTKIs4f22-a7duHBihvyFuPmTnlCQnG150YihnYC8JWjP1CXunH82sq9kv0bJdTC181BmbZbJmUjllEZmFo1-qQxXXfcp-990ZlWlRCO4d0v5BYYsbKwsAI6v0hhBHUQ6xga1D2tPkBu9ZLZCCP5Air80ugcHDiGbUB7JION49LGCkRjOt1GW6fJJ-5XX7LEbzApSoOv8KYMRhp5LdURYYU5VKx0GJ1iTR9P2nZRMFpWfLYO-qnewlrf2zgfINyM2npOsOa2n2VybJf39vqav2K9V1xV1v9_YFPcWauuSdBBdeEvpyvvUoITHKD4xSmjayJ1HdA-l4IZLG3pTfuyQOBHsDj3Vctga5Z5v7Q5-wF_AtyksqMoIKr1jbLgMuH7Yg70MI_3EWPM4apLUNH2ph434Hk1-IWJ4RGmq-CAAjZEKqQ0n4XLQNODPPYYBb_CvEnjMTUN3nHLCgJ78GxV7evoVyYMErAd7tQ1-dElVCC1eXu_X45IgXwr922axT4In7oVInYhc9899maJ36T282_GadpRylgacW2tLfa8JTkUyRTa_44woabJuqhyK7H4tTcE0R7hp-nt8MYgpeo5ayjeLjYqOypjxPrZdfxbn8p_Cj7rmDOUEHfBTEO2eRGeAsa3wXkBM7_bOFeap8i7VUHo4lJp4r7nSdxQIdMA1GstCjolz8Y2jTlyCLM1aiFx-Thiud3MfcPcWKNBhyUrHj2N4O2TuhXb32SOz8Nd7ehCHTuyO06-am8LEEpTwERvBOLv0_g6qf982LiFfBWw_JXJXwcFdZsGc9Oo4sK3DXbGaU7rQmwVkkvgBSyL3DiV4RWNH99xc9oGdXvMaR6C1xX8ZN3eFQNUVWf6g7zNblvfCDoFRysP9ibCWh4FTghL774K06PuwyE2Wi2zzlkNcBfEZ7XHNfuM7Jqi0p8ECjyBNW-h7rh5bLFB2h0RG0gRUIDX281vGNSWkkID1enw4VhD0vqlfAAbhCwp87NmN0YifoE09GV9MnNhNT10b0wl_5glZtyiDW5aFQM1dWjPQbtNGdXTIEh1B7vKAB_4CEI_jmElAz4dVMbZFqFTEju3D2X40Iwt1buNEKLcWX8VNZqDI1ArFKzvLhV6XIgNG6zXWQKxibIK-XGqe9YaWKQdEhbQYQW8nis5gijZuLfo3jH7MVf38ghcoBgXxFesYkCehEMBaYLiB6sNSgzkmSnz-Ry_T-WjVM7DW_HNgQWPVtZpzOAN6Sk9yKnAytDprk4bdElyFqU8TsyfS4efjuiD0dMsXmCFr9zKuG5x9HVPMRJB0P1m8-krE2_sDW5fGmLDVJ2qVEp8RJs7ukjlWBXOjG4Ik7_14QMQribnj5qYELzgyF4FnC6FmBtoe_fJgfXHICYVtL5MyXM7lcrlKU7kkWJz1QoATa789t7j-VzCHkyxgvrhOG3Wrk07qIt_jn8l-jqPAGPxd0GryEHrAc77HfyD_Fh3aSFiDla6hi4D4SHSn8qLKOoVQbrwSl1vLYfQLc6v1ThnEp7kJq-CXaPLylL8IKclyFmQc8QT6xid0ZCb9VtUmjOAFWbkAq-LcjlC72kEI10vXK6eGmLzBOkKxQVZ4KOt10P3l9_KMKaRU047_iDbDBm4ysv9Kkdg3Z6x68bh77iCwueH5IT4zPLaPUPWPtT0RbmWSSJ62NL9lqajJmzvAYiAoTn4OwwlvUzK7uSVbpNqh0KNdDM5BJ4fP_16FZO9k61H9ZFqhZ-q_IC9j44J10RKfXNpONy65hhBIFknOkc7XtUL3eASwtAiIulWjKS67tud3AyLqjfOueJs5LrDDtlQGKDJFb5sJZcuDYcSL5XE3ptaMs5QsHfm6100pGNW_e5708yGu4HyhPz6JBGLVGJvbBkLoLYYEAe7NlCGZUVWWNu6RPW1sRAMyoadxHQ6XHgEZFsT-SbxVDBr3vK3A7CdnpqgjnY_NGkdVT4hBnmtVSs788q5FIwAYCOTpW166NbahJnzJyAitpd1PblNre3RR8DHLUDZeEHZ-ouzwi18jCZTyaq9thY-6JXYJ6W1eQrEF_13astenWzsynREWFoQSe8_Xdmll-vGg5T5MXRu7znXiqUXWBpLPLELRrYIsHxml1yKA924lJYWQJ-kZGgiJH1xDg_fB7T7Z7PDpjZExxl_Fe2sTjNmYmJcg9Tojn3B6EZVEdDeA4EN0rQ1beh4m2h0yCNgv1aVDCU_F3jKd2L6gA7R6YaoZ82FByH2GTD8GbAXnJsui2Plqbaxn9lSxxnFaH7VCthhAJg1aTLfX2ojY8-hBPwBw5EpXJs6FO-QmTCkQ4mMf899XGXMG3IJ59VjbAdAffnkSL0D7cnzRdP2fVYDfoBCjTdIynoU2_uCKAQNZrA7RtztIUuNv4iRA741j_51wsSm0FiacGPvKjVaKexuihMcoa1ZxE3HSjC-3Ih8W6o26kXCovyd9S1hQQjTR3lal5s-GyL7PDCKwuPSQPFyr6_eZs9DnRO46-j9ryh3tI_R-sWN0Z7hN9EdV_o_ScTZVB6hQ-PDzATlMmxzHXLF-2hzuBaakughVZzBYOEi72SHIhQPGmNTK0EKbiAAjRk0ms6OhJOy-rojhs0MsAhpiH0lYT9MweYPrw7P56D-bNy49GLBLbt3OhjbfTOsswSeGSOifMHkNpC6MMg6wLi722quA41zLG7Flt_mwoqA2sALRcWsjgd9KtHbQL2PhUmX4nCgBLaYNgAMOkxGKFXq1yq8tl9jkV35b_33pjQYdpxn-CHm2iiz3vsDBIkonLhIRTiBUXcIbh-OkVzF2Lv-9G-GgtaQ7poqMzbzcmKeRCkb-MHhUqAgpH2tW8rOICNvLAzVAGKHuT0bOJOauvTNS3ijppHLsaap9G5uEp0HMYfsmIF9V90NXRofj_DzawqSSP31SqKni7GRV60102j3mWE6c_AtTosptnvsRHszlwOJdZFYuSXbPVdf8Ym51jJOZNJi9WAubFwKGtXliNdzlzXyBmkLXKaU_18mGV02-pRktmi2GUyLn4U0aP6_j192j1cmwiAU7YKsLbnt0c7tmYkGZE4Lvi0DnnOBbsi6eA83aGrL7G68t70lnCDxu88D-AX-PgdlLqM1Cfo8qpUhXJ6rA-Wv7mvXY5vaDeq4E96GUl7QEIFUouh17S3k2BWNuiJLK2iY1he4e4x9qShV62ac3dlm6ambt1gYNBt2jNF2ElATGKE99-QX4pVj7uKq27eUAylZJWehZ7BBUXKaCVSxEzxmbqox4j7Uct9j2kcA6ntNLkAbVU2P3p59B3xhbPicZFFVqsiNhazP1GtiQxIXGLTpnZlEzIDedU6eeIuAtnosjzMv5bLXyqJKy5SPlJkIxzH7ZiNrey2M_a-N5FdAyz0rxEJsHZLB5LIo6v7f5xRIZ1POv-euVsbdgO79SDr90N4iEn86-bPJ3QmLHfMUUMiQSqp2rx1_YQmd71UmcG4dYvk1T8bg8tzE-4QZq2M2YGvNLVOAXQjFQJIFS29ny6NI-LGSV9-CAOgvoJ12n7D7BfbYY-XhhYC8Cf-WhAM7-HfXWdR5w2Lgnptozdi-fe6EbgLGBo98tqf_DTC2f3xNyck662tAoHSbQjRaoQlCBbbA_1R9eXaIyUzGwJ2h4IqwUyU-9U7qR3k1689tYgjs40wlNT-2VsoNukIrNqkljodXG7iVeUUh5aAZA6ivAfaESsyc6pqg4DPQ5yH-mNORKDFJjnS5Vn9XlWFFfyoWgjTZrEeQi1NnPIWq9MBLFt7wrqTchoAu_YKelW1WulvoMcOH-CC6WRt3VO71fxa9uzITeGAdK6AeQhR0SwNCS7oLunK97d38ZaIg5ZANo3FJB_-15EP7f0JA9pjoFrIx02FUWkAEYturxaRlQYSoo3DDVBOQPfB1559L7RqWRwD46hltlX-mZWO3kbRGerhu6an6imYV5uQbnGEMJCP758eTKqZqjQDC8cWxWcdl8WCLzKncmpNBvhR5U5cLx8vwqYGs4dMq7oxtxS9KaUTHTOuC6kIlpTd3pshwvvNNhIwmqcfFJ5Sf8R_hzggqFNjgJw6XZ1G8gcH4VGTDPIdUSrPNZ-3mn4pn5msLwkKkjeGArwa-8v0F747vYGTXvIS07K297UtNtZbSl1gfTiRHy9zzs-dRpZmI0gSFQNP3JLP9iv357D4EpLQxpnrAm3JC19-3Q3r5H4bQBlzs5k65Skf1ms4-CnYdk8WK5jKSVJ6oVuF9P3TFk79iMXIvKQ-7pXnZFdbaoz6g57tJuk89JLC7JM8K1vpoQRSz8t9IIZMNXJpS9T4b25Z_QRH5x6Gt9FChohRHLYyKgFp5eVTflN-eel5AnpuDB_MOuouSTsDxSZxt5FcyLDRAeT_UwtzvI_XUi4gR-JZtNB9T53_k_qoAOqgSqaTtq-BOZAkd3j8vUqv4EbNT3QWhAo8FQPItR7bP67g6aLq5YToeCyqhwyH_1hns-GICvzi0RlKKG_tTN-E13a-6ul9GPgt_EyYUfq47DUcYA-dZ8FXgJMAXdw8iMXN4ouci9_fVxQ6P7QHZ6cSNocb4FHhdbaIyv7Inda42n-xjhz3XQ4lMj1EYITBscjLo-AoyFgAAU_iLQOlKg5TB2NSj8JIEtPTJMTCYZlf0ZfhWgdYHBETROEicMlGj5exUbyd1_NulqWrByn1oRj-fgUblLKF03nprFXDszVH1huZpcBFpL8IiIxdKyiYHhzNX6mPr4AlXE_glHiiA6PolUyZgRGaU8b7VmhT2aE9aDC_SPhjQ-ES9uu1RCYbQfMMzLZlzejo0TPpQYPo_XJqkv114YNE3wDNmFysmxq-ehm5Nb4uZ94Nu0SWDzQ3nSy_7QjG4WQck_vpJewYSBsEyZy0GYkqo_Zol5lsBktvdrEaaLrVg16u0hV1VW-KfwqG7uisyiTkyYpPDUceE9FN184M7w8wdH4vo_bXyoCqtJfwTu_qmhcK1I5EM-nq4Pow4QDS56nFzLLRdTYpgXXuuhbcVRHL22QPUIi4iRLms_gbbJLJXFbSjhQd10S8SsmQc2r61zV8ucNBa9O6QCH-E1xyPsljAkTxtIJjHmpeWhf37mpGYWlKGAOx79kFTkD5ygUGGEjpXF5NYpfH9o_0cYGe4n0S9GkEatET7yPFgVAqqUapo6-g3Z7HNHjiRUdLPf0JZqGZHa2iX5dJcV4SIxu3xRybR-fY9BPPdMnXeTtATQ0aEd8EEBrxaqmGf8my_oZCCtiL5eNzp3oGx-XqO3xjKEoRC69xkwFcuHXPxYY50sQxTbErWAdppH74mbjzZo3D5Sx-PnBqu4bWsqbOoHQqJxq4pPE3fWDiVUlBkfDPbHKtFa0pXnBRnRvcQhkAn6m6VeEtk4YduuQnXU0hsnAZoyCCHfeDXxbr4T8AcDNKKej3nk1WtpUQRtxMVOE70nbRuKBTxF-tyeKy3Ti__c8zSGx-Wm0r-jFoX_WPtId89RKZyuScRep5cIGincFnpnA4XiyhmFOQUimHNyn0Qug1yUr2hoovLbWux3W0ilMH527ICUfzTgil2kP1NQe-9mxCRgPxpu5yC47H1NiMvrkXeJ_t0JN3ypzEx44X9Jlv64m5_IiY2463RxIHy6QItze4gHN0D28wV5XNx92iA778gcoYUT2rYPN_z9r3JeyonvfwwnKwo84a4JtsVtd_mUC3ikxOziYMoLXasfZQa9WPSFTmu96nctIrv9y3dzTOND4x9eIGw46TtZ3Cg4LZL5tZBxwE_-AKognljJ9wH7gqxceQQYA1QgzYCm-QEn23VV8rTidDQV6XYHzZYIP2xqm39fPl4vC2mpG6RN8nvCERhwyHqLOZH_SdMArsgS78Nn26sGVhna1VIkYgYUJfNSRMISQgSXD-5Fb1Ik1tuP_-LB56im3BaLfL-CeHJHKLx7oBnFY-Xkc98WUGQaqJ2VnniZVtpf8W4rbLQRSxf37pqAwOSphR3abk0WqGG6xGWrtDFC3Co8xYeDZas8lT3zc_N6PhSu-seAl8hhNE7g2dIO5oroC--IcoNyIHmxEWdJ9NwwGimxwdLUJyfsY90R1G3Get9DGDtoVH6v1pe0mEsczheoLDOHL4B0geUwySitR7YjfpVxYxf8Bx5qpOc3OJu3sXzDe__kv8jUyHdnp7GffJKpVdIJBa6TsP8no8TgiLOirfZ-DbZ4bNCbwbcHZ-5iZtObppAalaczRrhx50V72Nk_wtVUS02ZqkPkic08H1lcVUjcCQLhH6x_FBdnOc0zZJGfYbcusH1-2BeeMde_npEy-4hNCKbiM_HohL1xM7F9B1RBxEtnS6Thvse09ZwFUT5JrYO7wUUO65Fi-ykF6Wmj2wc1JfKRDwF8O1LTLXkXVuqNBKPPy7ZIqiH3qnCKsR3n4sEn26LAZVxh-eKfXDvYnjcW4TC1InEffe6nblfljW7M6QzbUSZ6wuKwd1blufywl1XDWblZGokRSS-FrzHSsEzo9Il257nfcatRILmz_Lrq3GWYQbcwxCngQ-w5zwWldHKorQJZubbVdy02ry05-kMsez_bZ56_Q7tDHUu_o29Jk5dgy415S-vQuvzVnyxz2m04Tz_KfqFv2SeC1FU0Kd3luH0iwF85nlN55PGEnEWbgDgWDE9134xkS96mnsyEXvt_qXBAaIZiso1T7i-lUaCWjJy4mbSqBn4R2PzpOwz5ABeFQINNbQoISG-boCHrVNwsMoHm9sCMeOcvmGsytxzlnummWaB9IA6PTEfmJXQfa9dsWCRXnkqX0zn8DjiXYaW3gVpEN1iVmwnfpunj5R0CHWq6W6AJKETEfJp9dhjaQEmSySoY4371-idBgn4F12yu9CRiMst6HESMbb1iR2BxeGn5mTUX3LDCqTjXz_ao5E2JjB8RIfoFi4kNYvuObXXq1H3r-rUcK4ivzf0ODFWEGc_eAUT05LaBsewPeF1ncJXGhdpmUN8dbN3HSSAI3Eb0pT_A7wZeEQWp2tmJkOmhuJyIj3uf69ZaCas1arkPhyQUEDUU6tHIMpK8T_tBFE2porOkFHi3MOn_ONEIHJWT7RkijCY3_UljzdMD7OFDVy1Gu6oBnSzAf1pPXAM6xjT2WNZRrTCwJkRtH7H1Yk0hziLyzA86VTe4vYEZtxsu14knvScXI9by64sDMHqZXzF5b6uls5P0NXfKmi1vYGlF7iUbsZUtndgqB2zrWEl6et8A4kOvGhvV2tzZpXYZLYd75pRTTVy8HtIcu6lxJqBAw7utaoTVZ-ZFSVVXnXDJBb9RTe0znuWFOKbrHLRP9eod2nsP8JuKrkz9pMKx4-R0rBCcOWyZASDHXgSbnhRxtZtbk7cXSK5jFmZ-P9MvdE3c-Xj_D53PPMxOTBzNyqQNecrflIui0wnst7yGAZl5h2hu6Ln33ACIXAkhhwJ3JRBXVBHIxM3jzAioaYUI7X5o6ewMsUS0O_-nSnKNdSYM1LM4nsOXzICLU8pw_qmAU4wiTxyudrxr6O1yRwmiOuTuQO2oini8zbn8ETupLGIZH7ICTZeQPC5LyqYhz7GhRlnX4wvj6CU0WZa1Bn5SDhQogEnB9OfqZbx1vNZ93mgUHtHNz3M4fuYKgnp2iD5RQnFQTtG-w99I3uelTWs3ldgZslLW42vrLIcVwodsjJb7QuVMsWowP7dLn9481Z4Qvn6FwSs9LJVgo9q4AVR5hJJYXf4hnSY1Xpg_SWS_oiyMKZRoNRrjZH3feWcJI7PdrrkBVtFEnJjmoKMn0gnHZTALR_knso_modq7EwEZQ5S7C6UgNeBV04_3IYnv3rzxAV_xNZVxv7B41cmsIqc3Bg4rsSN8uND1yiXUDCVU_y-YaZNEMrcFFp-uvYiCxyB_HKA8Dbm5kA6XnRzRvxK5drBj2wvoF_iOjZ5ZHw4-uGNw5WRMX_GC_j0k8gdWbqfLnmZJxjnk3rlwF3whgu8MCpUfqwHiKm3xPqs8F3ViRm03JxjpX0ga1Nhr_rjSC3liBbsI10oGr5JWLGdK1buk8vjVrw9fVfwfUyEfenO6lWv_2p8_Q5UtKS4cFDYB6v2lbkFtPWo_Cg50pT9sk5EpUQ14HWXIlg1_i_pa3v_X1f1nhgnrEbVGo7bYOVEqs3nBT6B3IQBXUVwQN5D3XBmO_C3YeHXpf5GGhoEtiO0tm3EV9ZDOI2K4NjD7IOce08_n7sQfdkVGSNurtDdis_KS2FwZxaO6AJI30Oa60hlmBJKGMFl76LqyQ6AyPMnnmMVAD_eR9mRN_59H8HTD9tgCvtLQtIdLTDVHOXMGVYYKuuxc0-_jVcuEElQenWjJn-BOZnNFQR4iCdqYeZdynoVhURDeH0uPCP3dZ8VRRMzVow62ubUoPavj9roBRzB3A82oCZeJAGCJBY7U5lh8AqwYsxxTimrw5iRCN61dohVJFc4Dxltg1ZdqakXEJ7enPXBATEkqDxcNe_XNo0-obnPvf3WSqEVLabta0NhgVngWkZf5kdFpezngRjfFpUtE55HsaJ8-1meaHQNXUJDFsrnaSmOta66IVkuQPzUMwe2F71B31qK1FJ6inGqYcUH9Mp_o8Zzd3GlTup4LvlKh9lk0YguOGJ8mfwo_z4RhgiUX6x45BBtApR5IncYVyMlnWMCNs356bTvekTuBnEB4teVIVOaKYpEzqckzyMDzXDK68OLGOUK5B5o85Ni62mhNDXAbxx-UqP3x_vfm_D8QYe4WyRWVtSyHv_stOhttQiV-bae2xjG8xdK5fEHLpFfY86I1DIAsavl2dvlKKJSe6Rhp9srm4uSDVqQCrDbv3NySSD5vj-0Qu8n559onw2xUAQiacYYKlM__JlYT8Hi0oq0TC3BIeJ8jdMoR5Xm9EHqzuvhbu0tLgpjd-DU6iuMYu3sxTN_gqiVMb-aDtkWyIzNhzcn2yPCrRAwUPcVm0N4HRqwoK2n2m9jg8JeSbcCBwIzihY340LDg52eS1FTn8aKWYl2wr4p_aBKcO_Ltsy2-gF-UpO9a-3qBNTTSNmwC-4Iooh6nqYDND_44j3PUwWV5t9AccQaGmQwcu4flFTFt3zjPlyPRFOY8zjHuUi_aSjz5SZUGI86Pez7wmghJ5N_0qPaGk7WPhmDEtuK45LjuXg3ss6DkK3OD-0LHugvXq0CHbqCtiV1TDWqVE6R8gpWK7_jub6pwXmE8yzDe79mCmKOh2g7JUu8iFrz31oEbssjkD2xbHTkmjsMD9Jepuge2rnn5oeZ_gF8kOBG_SGgwaVXBe1R7FC6GUIMTUHko1zG9sxhQAgUQH77LpkzZrGyYFyV4jRMpVn23uBbWyBenHKQZRZrDx3WGP9hxuFixuITynrAdGAvHRKdThNoG0CEaDTjA3SmW1jKF9nJlKMjknpzE1B0jq7AzC7j5F0mJfBIjHzTGbZaGSdJ9_mWDo5Ja6NE4YpbxJ3zq9xzzSx6H8KOzTWHxyXc691ea2W-It5i84HirquXeHZ5N7_acA6dEcvaN_oleIKzvSjXv7hGC6AuOOh-Q0YbfuT-5iETvYtTq1VyMDemlO451i0nPbOWUV-ykKLLwQRRsK5FZqPmBCjdU11KRN9Lf5qfCk8_LhwkCOkw9_BdgPwnU2y3fHu2xDTmWs4cMwtYgEMR-6aWpJe-cixYzFkwLsZ4ncsjPbNP1tRdKiWoi1m5tNH3mTm45gslwDz-Rb0AZLuy-3h15NbC0JJfkuEjGtPGmCFFbXl7BYBVsCQQRxSim8dYxybEK8aUlX1w_fLimPEyQ_4IFeHWzVzOYJdU-iXiDtUPwnR1dipzVlii0aQYSGZ806GARAqg63vFgISJe0iM6AY39kB7iyyQ2sZJ_ub2AYD7SFOFT_k-LToFKiGBi9gMD4mD7620owEKCR-XYtEyRe8QbH3xKmgRSjSNoRTWlU33iL9v4c8fZ37c9ayidi34bopGaLJuOo5e7yvRc2GFfabFIIhOcGpfFdEB_5dboGpsJsXkahAjmZ8QuO7yreg1ms5wIoitXLmoMsUGBvzVgeP4BRQrtm1a81TTmXZS10mP2OZxgBHCcEHmAbezJDPPjoIXOjGmoRvuerxbuX-79PGct-ymR8sVt-ArE8w9GTcqjq14eVlnblPAjzlVLtDYuUI6VLihE-xP29z4KwgjCB8ju7gXqju0WXoE_yQUQVL9zePJlgn1a7Aq--WXbjY680jcPROqPKSwey3rsDSrUMUnwJUiQ1ORld7F64orX8-TnGFcqhfKoOurj0jo-zVpHCnGfDr8OXYp1gEF6LV3GQL8HWyigQkbVssmAjzfRCDxB1OIi2acGG860gbwQKu-YfmR9D7SPbzo5i_k22mk5RsGShnHk7aU4khI7HpqTu6uNmKsVlKM70k5aI89t0Tv1VG7Kl92xL0NyiMt-XpTZpswCQO0Ezo8cXtbzfioNOwpY_8prBx5cuoeKJCt2ivSk6ItOCFHINMY3lLvILVGJIM2ZZ0TOVRtHq612bKrCoiD5FMQ6PmXqQuJQbyMmz1b0mrjMJ2uCG64FqtoTdOpg8CZeaRnBX6jxh7eDdoPRwoegIjFrxHZ6ZjBELEyXAd168-0dU2C2rhNxmV9PJoONRWwCweweyebNW7DE3nKXQ8ac5r6miIuPRiDlYo5FU1fpaL4OvyTQ9ybPiZA3LsNIgwVSVyhCYGZtuKeqg809XVqNKQqplR3ZD1oJPHQ4PTcfEv1mJ7csyVExwK643P4p51GrX69x1XhdC9jKvgVcEyyqcaX0TG8j3SzXNSNi8EBj8jGLidPWP4a12ar2cXLaZVyeXQDmd_tdRLXGgyLLStwNdDaVlwtRjNcwqwUkQ3iDaJPhsC6bSiO23QJFrP-qruORh7oxpCm9cVwsmUbjfe41DYtjNv4siSjNvpQgrJtqEoG8Pyi270Tcqf7iIC3cqD5_EdbHnp7LVwLvBIZPlRBkiSYNTq7tJTtOj_QmJyV04KMx_YuJUGxq4q8GY4z3_Jqpju7-YkGSbZXzA_MNUfZgdYC1jeJwytKTT2O2YVdMKaTZjsPVE9aS9U-tpzMbrrkbBh1nPwakEpfXVo7TNMbcHDEKoMDolkUwzjy38pMbTQZI6G10ezOOI-_fgzZaidBiGNVrcvEF6QmXUeersrWLcH49UD35ctmtwBRrz1qBXV_vpQOx3mWO5qN_PsqRC99BAukrpt-hequo7FVkkrjjqfXJWBHxHVLdRqRf-yisbc8fZu4NMzL3zFBf3azrcd0BVFKxrUF_2xwYESDy-_bW-Y908OcOfGR6scFT62tJEnaPjv4KwDDdTSmzKa0QEs4-VRu9x6nqRyJ9wBou3fMn4ioppcwgRF4xI_u-JG4av0D8dTcDA391UIRWBEaq6uGvXGW5wXIja67bDFnOzUAgo-0o74aL0XgENsPh_0DeOp5clBWn50LkuCwReSH-oS_A2nU2m2dpBa06GtU1Rkm0BFmB6wU35rlZ70X6mUDaqFRB04J2----f2ny9uvpXgIGpt2GQjRgOCvTkCSGoBrC1dc_8beb-8-wDq2BAzGY3IjDOy2axnyYHCQtqEqUU0RqLGDYXzB3WYt7E0ZFL7rv17tMpArr-T8Ab6fHaLnliAsMZeh5u-BNjiYDO5ImDt6rLDhQONKx-SOjqpzShvR3wjUIYNyCq0RbmGx27NqlHscraYFltwj6KRDoifYlxw1lKxvU2HDqciN6rmgscRg3eZYTc_FM7Lue1A0fDxwJmT1HHhm2b4P-pfChfTf2OynZGsy-TNXoz4Z-x62kCoEGISqfXizjePGStWZwfwUVeGul93HeHcfK-AusNB8OqzP_zGbx5KXiksW2ptKNYghl5-_QWxPLdz5N7cAefbTsaig4wK9COwQuGARK6zXlCcXmxPuPIwYk3p4zYYVIVP61K_-i8ZPBBHep0tw37QYWRfjNgh-033LKJ5YebGodV4Y5dJJYj0xDBxJw5ATxXFGxico33xeHUvb3IWTR76vXLuS3nkdH7KgjcC1n4dLBlC-GKvOBSD4g-QPatA2Bb4ATnRgQjKTjDQxpSLnaFm_uq7z0c-fmram-M67h9h3CYU5RJ8zjXEsEzzKwM4Q-wn3pZcm8YcLqQ3cootX2IFw3XKbw6ykv7-a9r7Beur7V86kkTtVtCfQtsoIF8mhXO65RIqHwcyrpMhACoBWGuMl0XtcTW6gZH2aPMqMwP3w9XDVbYhPywZy9xE_TEln15Q8ydJyvb9HE7617eMLcd8zaI81pZ5_J4_t0pdZNxuFmEpk4WmVI_gpo2rTz46eszEYCynxS56ruM2HdS-IE-TnB2aQUoSwLreSFgkTziaJ1JL7SM19deDpihAgpZCYxsN6FI2jn05wlWF-SdB105LVQD6bNrHtN7aMkFKrty8eT6OYrY3OC9FKhH0J-GHj6aA4vTp2BM9lCvwqpaNf9jgY0DgfkcobDum8syAwe9e7ZF4s-gSBACJcwthwVRS-2MZZGCyTHiSkESAnyiwjSl-jWeY6wKXX2hXut5ikgi1Qk9HPHc1K9j3qlePZpBcVrHeiHP8pNbYg_AltqQ6UPK5iLrApCA6g-wHLoMLSaPLHjHKjDuUlusjRz1Ea3EPrk2mny_KJfP5JVyFIJxCPUAwK6Q3JlmKbO4lP3ivCLcJzmf5gzxU-wy5rnwiowQnthpszu4qhKGdZqdWzBGq5nh0glKxGU2XR7ugK-OzAqX4qw_hdUBS3OLYjaNwLlqlfKOiJbRpKUpaO1hShoKhpev-sUCNOQgXFd1pueRDdUnboIXkvAla18gfMZux7k9UzhaN51obEzMdQw0IpHW5JwDCJ5rg85_uJ0iaUYOQ6e9r5hIJDlFtDXEQcuRbw7eoq1ItTJ7dYG2LYnq3-t7SGkf6L9jLgISnPuYt04t01ZGOY_eo3KeVv8afcmCNkmyWnSTn1ClQ6Y9G31I1QXNCt1WE_9H2uEA7yP2GXfxU-reP8BJZKlFICgPOsaXjG7vRAHQY3Kdu96helMvor6uJAMHwZ4Mo6Z18F94hk8X0IQcpm091i1X2Rljfn6w67pdqC4zXvXwEaB3leYcADFZx_ZwvD0YV_0GrIMBG5D2ODJjpQSjmz2idNA-Q86ANaTQwwXDx_vyucGmJ2_KAw5z-PB8tseItTcNCMsBsO9-Ux1oPxlQdVZYDmPG8oSGzAuqiAlazSYPisejqVSDQe-DL-9l6Z60f2D9XgOvL36MTgjnCuX5e1qwHO5KjqhuSb3gMlCZ1AooaFQYFHR_VB3c4oFBfjLS7KXJPP5LOe_B8CssBzoSJDBqCLEXistJvmC-JFPyHREVX6Jbpo4yXJXArLMUm2SiOiba2pPb2g9oDFibHGYHRdp1YP2KFiYXmh-5q0O7gwVYMPn16hNGUGyof3PybSkPxTF6YAdAs1PCIKg1zo31hJvL9ky3Y4_tX9PGuXh2BDtmarJzBXtKW7pH-6St1qH3V6GzgBvh42In81bTwyPdR6KyN4bjrm3TNxMpsiddnYare_5URH_-mVgKbVbz_v-5QJNwpIm28VBC6ksxjcd5NUFCYLTUp-UeL62v9UHxejFj3qRqUu3KBniM5rL5gPcCjoCpeXq5hcbjYY06ePB1zb9DxU8xVAHC28YzCtDUhlNxcceGjnmY_7AOnTA8szv0RVqYf0IeGbgw82BriX-uLUnQlqsZg313dRHKEkzlIHGlSsJ_WrdiGhYwJQYlrFQZ99kcFfH1YtTNrzxcPjL_mA6Wim49uwzPRw9A24F3ehjvq3U-HCQAb5BYbK3TY-RT6Bq_ofDZrRRCNigX4UCBg7r_d5L1A69SYAF3UYPabL1VOp5VOxEf7cXhogAf7Zg0ZQk3fgyyz7r-Bibax6vJGspgBbnU8gu3uuq6e2s059d6cVd-nSbSAbdtxG6fhGCzSF0e2fxguYmWyugUnRraX548Z8y9nWyiVaBIx5P5ZxryY5xt3Pz4fvG2vVSfRgqL126SW4y3BEo1UvQhqh9tSmuEW0zfX2No1GkMNiF5T7HiOOjUzn6SQ1yeH-y7D11c2R26y66cCVn6y5Jnv3AaMhde-TS_o0M9Gjh3ds4x0N277mvK8aMsPrrP-2ng8-dQC15w8iKzxt_ZTTwaVBmFFGgeYtieJev9HZAHV_r02AXjSKNXe4ZiaMW5RKpwnPw52ZaU6VXRKHhVJ-JOILgCovhA6bIcLJC1c8lbR79vzBvwpgWEm-PegPD0bSG0tFtBJ9vrbChMK5Jp2e1BufHTzjow41IS2fGpVXMP8PmbXAN0H6MVTSbGNHb-1UwLeJ2KiN2VrK5TdiQbTj_MmpKXhJEeaidJYOD57uzhY-VIUHkULMwVV2K78_X8PiZ5DjamIkFrgaWfj4bAOOH3WbyLEVmHfL6X6AelscgOmMBb3ex3EuWErAXwTEYDbaJRrEH56nA3PI0hsTKcquSvY6ip6I26SUyzKIWYRA2KC9udCFjHTp-2KQbwVwMdqKa6spAACmKLHpqJQVPxTk6kql4NWeyFfi7_zpQUHJlXFmI_SBvzK8Bl_iB79L6Zkpn_ug6Q_TZoLkeBE2gm7eVBsiGwKjwpOav7rSyQRmMmziJ5m2F4uActtdVhm4XUgWn6Rw9IrmXvzoz_2iZWem1rkBoMjwQ-OyuN7LMIBniWbDU3pHVh7YGQjieYWXIz0BF8ooDiqvtfRXpmIhGeQfJ5NvKYPG848KgpmhVGBB-L_2oCBEpcy8d969F6W2gUxRya7XWf4Ta57tABfUqzkiOKv4J2-yq-9pUMdkcQSlHoubCTioOT4yPXa0kF48TMLhQtJj3G1tNhPnSabbPyCCDYmrsOa_FW7lsAx_ffNAoO5w3YaIu9oorXBRCqqqmueMnx-7VDGRTo3RwCP5WaA0pQ3LBOH8eZWr-ZqjlmO5dtUMe3Mr6FCVRzjrYvIoMj3ozsqm6W4vJAtXkvXRNd2q6himWcoC2C3TS6en2g3UWwI9LcmzP3BSKVmkJvjLelAdqNHSUYgjFqHb8ny5ELyjCPcbkOciYIvACHaCBrSVEwkqzCl-Ig2RJBScPET-1VeLsdgw3om7XhIX8p7XcRkZzgCmsEamcEx--tjqq4sow3fSblnLSs2XX8Z6iTzUmq-sfxjwtsCU0vqGcnzIMNgq33F-0Tl6kDeDz0fdEGC_5sXcvBPdMAPgR4eouLgl1bsWEwuvDzfrC22vZEfM-48eGk3x3GkJ9mrgNLsUaXQP8xGoi8aLDUB1CE_gtyME1zk3Awhf4v-c6T5-3TgCwN3BXaem7z8zT03D88B6AJgbhdeBBZDiKHPtm5TTuwC2hdKnmjMvX55FizTokiRaM2m2K5vKd8v6G12q6_gQl7zWm4qb2DnI-GIpt-WAQ8SL5QhW6wSB2lqf6PPmIGfPuHOietGaasqueIwEqNbEGkq_InrIaiirfwrm7t_urm-S1rTrp4nENf7MyaLEf_zrc_niXjPG_wr9QLpW0lTEZF5hTudY5q8TV0NuJPh69aaUiCG2Y6U-pvK_Lz2Eo1WK52uNICxrnnQfDOjkIMFLU1kcNrjSI45KAWhoFnPGWGONvjCYow36p_dMZdBdgUHevt1bqqInng1kar2layASXSpLDeTJhO3nXrHyoWx0VHcV8y-poS4ZIGmi4l88AmcDVGLTZplUHlRLWxMUyU5nMjtPIh1ibau4zOdXpEKs4znnwuYzA6YcEQMySZ1twY26RAu2YIXDVPxzu1cYAcMTOLqTKRjI9Onj7noWHBNnfOPQZp5Jd3FNbNpnJiVdqCyKP_L4qbnbmYhwDXfn_mbMqDD4Esyn43Fc6yZg0RBDVw7xktv1LCAp4el6pKMDRQ5X_MAnU_2Cc-4aHZpq3MpD2xKf48dsD_gfjQG67aCsBNRs2RGxV_-V5wbFfQBfWiufERlCGVk2MTZPFC5i_58PbcZTXixiOlcoxQv7JmKF46LdU1-3MlWFrN9XvoKHupyr0uukuaXeZ5-d8Jnbkx32fXN1q5a4Q7A-8YMd_bvLfPOuOveWyIWzJIAOSl3jMtllvD2SPhGmf6X06Rb-9TXNvqwQLeacTYN40oU6f9YyG6h-Anwhex_1nGws3yq1BzoRr2C9RHbAUoUi1q6ETWXq7F6-p3fdp9hDcFT9lnky5IZGDpvJR5hYs2qrYOb3_ldfi4xQEzs05gzoTe86uBVz-9ETav0S66I3OwnzfKq-F5-ZWmf25i-EcHX2PCWdBdT74A--m7LBMKH18LiMWAyHSRzUkItLaSC9JgHL6nKDOharQvvKasPn4eqJ5_hkL_L7ULAHjL_5d-gBqzpg0-ZwgYnN-I_UqhpPEbCMKtImfXcqZ0fxKr7cPcel0DCbtzfndd9bYCj5YSDCZK52xSKiOfpjneWqiSG7qzDR6ddC9Q8fdlPzmt03VMOt2GpjL9JrvFXbFAW_N4jy6aVlILO_kILEkgfTPGGacpZKFlFKHfGDEJBIqRSEZaWUzMYP8nLEb1Yrmq8ppmCm6iu3YhCoiVP_1Ts-GVpPaGXz-YlkhQK_0AR--dOx24VQ-4_kZmODLlintifM-f_V-FdP2-hQCbkK5jsoDVHCoYe_n78qc9RbSdFL8XZo3ZKwhhdWxgW49JZbFN2g_VU1pR8adkZPxhDflA_5DkvsBXwGabiMCLmPaKLfmgSuj_j8uUDBI_9wE-fp8U7czR1nXbvzkv8bXm-lB8RFjVPcq2cfBS6b8qMk2h67pk15ztCwQfN0EoFwsmUpOR0pNygf4Hi6OBQ1yxL0NO5b30m3-iIybsfbFH4WTLJSMtHX9nZh-JaImkSOP_dG-U1adHfQ8sBvwznL9jukL0SlMn7yz8LuYcdhc5hJEjeqlsY5JdPjztWmIGm29chTTltm0qmqsCmfQJsEbUL-AEdDYAGcZKfelTPYCjMoBOByG8EC_KG9AvsfwwI66TJghDv8v8_5VZH8HDvhpDrjlKKv8xsvdV_vH_CZwPItD1jqHtthD6oZ2iXgSBYK7ok1d_gy02eTKCx9I8EfrqFlPIEsmmKUaxL-KZGICi74-oPARP_RKu3ztAdZc2xNLE3OPO8GDdSw4tth9MSTLrRwDdz3uS4qv2jsnsYJyxFPQV3JNMGuml8R_GD6axyar9eLj0q8e_HK-svva6jUYWbBWJ7Py20f9t1jW9lwBfWuxhxaEApfQTDzKHkEgUc5le9aamJb6TKACNOGaf3aGZAySkTSi0wJONQoQptJxh3eTtPUQjnzD9J7wzg78_0kMZw6B3TnsmrTnobPpTKgUVSYy-fBAwLk9omHPNYVT-e-vKoQpNZOywluxwSzEHe3tDdpZtqfKss1Iu9uzYkos0Oz3lk5_xj_HaP3EfX4NlYnij7N5lA1NIxIoqRViv824ZG5C7nu0Xdp5v1j86rSkJ7UKKPkJfOvGPT0G7m-eKVeHdCvuGtq0LcxEWOhv1y-YuXYbWYBSSXSnSfoGrC0E3FJ3MzU7VFzRtlU4QOtjRkMFfhEFWeB43gH0lpYTJEASkgxsYbRjPIxxQQsWWlwiaCh1aGYuGVHQ7utAP39hAbfNJCdtPqYmBTpLMhd0PkE4t_B0RABlDKeInPkQVqcVxJ0p-dbHruJZJCaiPke7hcHNbc8w6ULGuDNKZ83tNxGz2ydNzdSglhf05PxqNr3bhbXwujvX7N6SiBYrY_wwT_3NEp7LLiM_JyI5DdjMK4JrwN6rwz7EQYMHLbkDCu47_lm3rbhcl_Gi6y2QksQvh4gXtEQeGlpF2MpA2tlQLPr_TFDaCh9Y8XsZFcXT_f1QcTakuPp8jgg54CyTsYPNeiunyIknygltfi-ypk91MppAQfyCM8ytr4X2hMApBOEKMeDZXwe-WenRcv-OX-Fr_JKVmc0UWbLq7UQ930VBtORthJFddlvk_D-24qw8e6qZTGb80c_BRT76i1bv5KgYc2okbhK1_8q2KGPjx4-k1QL9UPcBqrUHm8l2Q10w0DGCZ1wVF1wX01KszrKoPi5FfL75lnN8AgWbA3zEYzrd18Oh7g0RUmbYfugiNlCZG6ccP1u8QwW6egi8-VPwJbt1ABHGxcCZUdbNg9nD1JF9t9mcKAMDvQGUoYWxaFEBZO8siQOBGegUh4tTTDVRiZr5OlUnDkLnaWmAS70yaTviPmwkZEWypldMy3ZgJRIE6L2XtQtz0YEadpaV9EkUNgSRR5NsXlFH2z8Pvn-djpMHhFauvQtexh0_BYlH_MPhdfoTISithfY4dKX4ZIpqyOwfEU0HKhf2rxA5PsGBcx-FbTrMZYX8B-JalwkYUbJrsMiYbVLAnEMXtYsr0b6L-3Qxxu7amtdKhLRBGa0GfQO_Emdssxt3bhtdWD4for-lS-7uHg1hKwTImC_A3fPkyJOZsbCYnqNTJeRVXGBZLbEN9XP3y38IJmf5qpp4PKDUYzMClpZAERDWqgmEdNGes9SnMDBEgxF1GN8bWG6Hsw5FQ4gfLVV-3WI58Q-6wj3W8hnHXz-YoKTnZ16o5N0DoxxG17qhV8P_8LTwADDRJwaMbL8EaJtAyOZ1142lIoYs37L9zQTQ4yUW4crB-YwzoHs3VaIOpUIDycjki_NJlEAe8fsrVVARc115bsqtLhTwHxx5RjRxXmzfNngXou_fvAdEzAFfjflMJm22_3wlDznTCT-Mv3t3CQ3TD-TqUFVEGgdGBWmiRTAWJYDz9IhRZnOQU7T3wwhkyEOScLMesedZTErJnrAp3Coit5faTgmq_5Lfke0N6n_P-JIskej5RJ5Ooc1-c1VI_wmwIBaznDlRT0H-yzCtYKSFlng2gAfwQSdSf1KThat5ARjnzXOc3Xprq4c_pwfIYQx4JI6dEW3XivtPf-cjqB_c7Ivp0sKwiAbzle_6QGVOU_I3jMbG0nGEdH-t6mluj2vu_kZdDRW3wHJVHlvsinTeOhvSApl3j1cl80xCDaPa1Xxu9MaBLPlZOkrIY301BJbIEdaH_5D8Py9shRyouQts8h02pOfpshVzfuht_WPo8QVeaAhEdQ_tpgYcBFU3fYGHIz-ioTcmp8zTBQWzLp1VQJW2vO1Hn2I0b7KoUdMYPvY-ysFsfGUkc7tUI9D4xMnVYGMEG87CmV_IfuinBwiB_xqsGW_P0DG68-eHkn6Gc4U1cOYV2W26Zq8NdpSQNX7gh9ESMPe7Tg9GLjXVX1Rw1zfdHBz6rHXkjA__RtvDjJBCP7QsGm07swYPQcoJE2mFppq_zDPLMdoy9b9Fw9_R62EypcpEOlwsqtQ2ScW8UInBaSvkN-L5i2GQTAuOyFIUy8k7qUFVDjwKAiR3h0aX808Jsx3YHHQyuX51bw0wjlfIH4_0nDQ_SCWIY-IxWKXXzlGuJf-K6SfUOqOVZ0XWrn_ajdoYpOL6RKUaRK0xfW7aKmhcX0WMuwlEezpwdd_aL6xV7PFCVngldB8NJYP1zFA2gSm0AmiOzJYfb4kudchYURfHbj9WFj_D6-g4TuAAaQTSAfpCJaBSYw4uCQ2MtKm4QKMW1RL9I0od-_vIORuBGiaB7mvL9v_oBWMNXkh2Eb5ez-4I6rcKMb2knswi6pmvFRdraKLc1vpYiH8c5Twjqng2wj3VqpponxZI7hQBX7oNOpM1uemoCG6_uUcCq5M6S5NciEpe1IZtyWY1q4a-CTmeSAsgYzOtSRycFS4BFvMbYHfdoO4D5k7jUSiP-TzFvug5BpA-T8mqlQx-IE4Re1nPxLJLHQZu2RBb5x77qs_lsKR33qzwpHSD4_szdFDalr_a6VPLNPZo_ufy9xUD5aPZsE4nbshsTUcZo4XwcJf3p00qjjBHEQ4x6bz-Ze9d9quoIGeAF5fG5cCOMpakM9tA_edGGqzcqDhM_5dIO9ZwtaiX2OPqcQfbk6qDLb9nVr2yjH7zvDutTqhQgsRMgIACPmrZ4_QlDLXVAjHCh1H4lhUck2jINqsvxeyFV5ckm1Jo_Wkk_3dSwRu7sjLQpIT4CMEpI2xY1WsQBqzUqYUK6qFzoPQSppVaVJCsM6dpRltdk-kN-ihWm4oPLNDz_1J8VJ0keaf1i1uNMyF1KTfLDZFS6L5cgLHXQ7Q-5YHYJB8AgxfHStj8x2q9sy80xDqpm6ExwCKXpVharmnJ-d8zi-cJG_w83UGEAeAHBo7CoZEah3maoQ4sD1CNxhQ7nLaSb4Q5lN9WoWHHjrd6ApDc5m-530yOscm-FBIuCuFo2vCzDcz2Raz4-oVSXhzKrGvW5k7_ZICg5pJ844ESGexHOsFTUS9Uhz2FxOrYsjM3xn_Jn_AwVlaDsZw43xIs9CfhEohHOSmURixdSVSfSVqOJ_bzGacfsB62MUr4LZfIwJ-pNqQblalFdiZkqFMrRjv5NXJAIyVlXuK7nbOyF_CR5OGyn82YybKYJTYX30kXeUypXI2sSdaAYir8tq3eXIz35fDaICOy9Nc6ZD2uOaHEawhi6XcQ8AvX8adH3HeCuErpSxb4zMl4Gax393vmm8IOryug6upxkKYzfIl7AgrhrJcqYZ2cJuNIVVOu5_XqfMWI02fx7hBxj3owZvzSwtQQyyKgTwVtYTHyIYueh-l_nF0R0NCS9Vkdrao9VejK7v3L7kIWuKAsH5H9HW3bBG9lfphe9eBJdIHLwU2BpCjEaLvMPHdpCVJ_a9GvloYGEhMA-3O4sOFV_C78V0uwzuKwRUuDdYRuhAkFaJt3sGPOvj6BnAPOgGrTbsu-w2wnD_ohgB9Tch8Pnd5AZeToFrirltSYv9-vmdo-fxv0OQQuqGsslGnCdBH-0yTUmr7yJTKE2certE9_LxORWDoJ4YMqVAKnidlwVCc_3Z2cTOOdWtfgnzYRB2akjova43ixYURjycMFezXT39e5m1jvdBznbzjSHJkEiiO11kfF_FmbP2RYk9JWm160_t4Wfn5UMGCO7kGigKbY1h38x3mnG41EXlA_R0CgAigk1lDoSqFHJ0SuBLxcKRNJeAe9QpJQ6V4-vquLSRWurTU_n-60JnQtsMBCgWuqqC2cc4kq7MsgTtcrvwEbvSWp1WFcoJTFSsJr2UeHiu3FxIG8cm_xabo-z9kUwH9aO5yi6jmb7sOLb8-1j-C0rJXuW2s8YIjhnBg3hvXk8v32aFmcexXpO0wah0_5GPNt0X6EPmFzE4cRqGOgJWWZxSzBZMeni08Q_kNocgVYZnpAa_3DjLkn6pW4-jZLc-4jQIhVOICmIG68MdFhktPQ8DDZNnE5fG5fjIWIUXhThwBlnXaPfuxHxiecoCvgNOMGDtzV38GZLWjuuP4XG5jR-RYnFWUUZhkxPX0_xuT_O0643UOe-JHCyKYGhARF_Bj3KiKUP2UZsGw1T6ctOAgPb_JPNSRbRz0eBNTXqEUdvo8gqdWImDkzCssvSOMry4y0kifnd1ErpDyuvjgKmmivX13Q0_LZPS5qs1zC1RUoy7u2Oy2LedmBqHoNuPG6lRWmN3t5hhC1fBUwJcfZ829JcotCnpG8UWhgdAfDVw4qo8ygls6kmGUmO3Z66ljvfRK306HGApMmTwxelzdSn4Stq519ydsWDqy6O_r1-qaF6w2IrjF_lTcJ7eLRy-PkWNSfS-sFhp24r8gIWiKLspiV4xmEkW4eP8iXYM4ndh9c7U0wrV-f3G2HNrtO-aDiLbildNlQMLGHll6hLHuQw_1ksRa9Z5-yQzEWOGLxu3zIbErTFO_ktDOfqLNhPhUIeik_3HzmprYqsIdZZE36UArdqwokhs84Qz9ywVJIR0HCMQgfohPA_YO6W72fluLbp22sZpoDg34Nm-csEm1fYSjq6_NHlCpP1wXxvr0KH7yii91uCEc4mu_zdkbCSZD4ClMFJ-wafVCQXJuCmQNHJe1zbe2_jUcPf9uTp6rBiEEsg9xmW_5p8uemOv_cfzabQhw4qu-OXf0VuU6do3Csy0dmwvDWR6RoBe2-1tQD-MtlBHN_9pxkqg-fAm468AfQO5k7qwcRIKAwxd1sB2vDP3l9YBtDWRjpUOssUEmMOQayCGIdZomMM6ecr4UdFQZilo-o1fXlpDLdwC_pl8I1FtPsBb8_6IjYqcvA5ZlmITAx06C0dJQNJeO3SJZnWkU7DluGB9T4HmD-YTRepMvdSLq4PLAsOSESK-xM_lWvMVfkm02262_Y37smZCkCgniCgQyHZuhBouo89DuRfjKZ_7X3Qcx6CouF94D0uDHvZugOKSnmtMd-W2zRj-fN4EWifuZv8ExAf_wdwx6jOTec6NCsrTCXFsyE69tqxE0GaBJEGxth7MV7974zyuP9j3ZVfN2OLbkaYWxtsB_dUWbxvZinqKqSDcmxlwnti8F1Bb6M-Z0WBfVhrC2_1sGKi02_M69UMDL7QDmGj5bRvXm9UFLU__vv3Cnlz_CYQT4LSYTqhELqPahU_ks23oA47hgyIm1aQDxkivtUauKvMsR5nRJQCzTvN_oBLlEy5v1tcTKIUGpuZLPZK4E9mpgpOd4H3ZrhQRjuT46hobQHh9GM1dvpkgKuIzpXAHGv1r44j8kO0Lk-3NeeZc8bD1L2oYhDxHbhHXLu1S1ikRjqupoQd4C1pN0SO4Eqnl6FpypzzsQomcRyEGopUX30UXCTrGidLeIE5_n2fm4FpFDJrf2nPuxXbzSKKtqhjxzfp7kfbE13AYWa0pkuF5QJ3ORJrEWmXEfQ8y1clSjz5zlUEYVUiCYOeOQMQNTOyzNZayAOw3nD5_yzS9nQIQGBqckQrkeL1AiK_Nvu6eG4KcGGPzYSL11e4TVjezsU5Da7WsPRwcpWS9NgZmx84c63JNodKMHFVN09MbBemFB2Vs_Tvqe6XzbdY5FKLOY5kadS0ncSiWGZiXnyjFYRM3Py5XYBez81uFds5cKwyydKy_tlp7yOhx0Q-eiPlH3ZHrf7OTDWqO-M2yGaP5be4jNRGoG_hNZUyNoZlIEghhQkbcnNBQ1pD_SAPgKH2rDPPwVabq79ASEIDRuyfV34c2xjgPFeNDc6EU_J8e2fHDaDz9cPhiywW8xRO-Jw1qtaNZ-7b63jVTXVJEdd9Urcuna48zov6ppPukzZIzIMyG88hIPFhjrpwUUSasYdhtHzm5ahW-yE1ODmMzVypugY2wdF1Gx1CR6ITF0HrbYCfYoVU5Be0uNHtTuysLGV-K156-2RQUueVj4OajVfiR7Y7EFSIQFBfw6PorkUeqnf5EAtd4BrElacE1Y_tbrAAtNrJYiD5ZkA_vyyGzjKycPaM0rqlJtvj62mEbn2en8ndHQhJkYSe8AssHGJdw019mw9iK7yAaCbpk6LJnkJfnfiVQi8MgydQ8eLqnB6NwxoPycz3_zm11HW1aq9MhyZU5fhjSOI48RwJS_-wg3vrwKFM127l9l_1kolij27ml16dazXvcFGlVSLW5GZ7-oYItvN_lscPjItA514Ny6kz7DnHRBlrna40UbGEZM3eNXzXJBVmzhicgGKWpm8eIarGTgQmV5Age8ifDE9WiqAFv0SY4zf8JLmKclWJkt3oxFkwGVcoj8yFx776O7YRNYoMx1NokfVXhpaheBZ4koGNtuEqu7NvIlwxntuHfTX2polSTQ7juTNHi8YDNVz1_Fx5mOcF0SOWRRyAxWERQF8OgB_qLDPlRkgeaQIwXpqGviWUJ1XIHjKgjPu5fRloAWasQ3zQrK79Wq8_kXzB-8Xa5LX1twNUWeu-yp42_9qkzwADHFEOl_DxxJabnLp5akoVhXVWHERTAPnEriplpWv5uZ3R2Smf8WCYF6viEDhimZLlRTqmVSEFnX3snJOjuEOx24N3JfGNuaGIaODBMqCKrj4t4AX2SxMBVHSoXH8LtAdt9lbaKJPbYyvC9GfR-cIDUFyDCtAFSDIKaVXAYla8GUMhKBVN4FxV8vHEIp4k3-9zmbw0Oqc55x3D1mbB4c1Hd35_NMn0vtcAiBgK9dtsjYyrP5GgGdq21YqvYUfkvtO3XOMQ5ZE1EKhSTp10xXqiEeYGO0sxroMaUevRp5fCQVnrYi7Go7iun43P6PZGVK8cC-r-wLwMa8fy7Z1129CtK61Btx5Ec0zP03hR-IKi2zy6X8LS6UUxvSIzhl45n53iZIdI58jxMjC0tFiZl7F5xeqBxdVrE4xvbDJHUHOiZFoSMKBj6SnwYc_LYV8Uzc_SjjMXKGwfB4FPENgkGteFDKVxPe-bHb5dfhFSgBZbq8NNv3Cyah94ciqlrVhV7hTylHYtcnqasMNOwMKGaDGLhsMIsfnRMJ3Xtx2MR4mOhLbQbsgttwEBaQFsfqI8ytsw1YosNGPLsrA_wd0oY2A2WJ7wpkuUovzWWyKKE3M22CF5cWpDRG14vvayrR-Z7F82Je1NKggcy40KkvI3apxppyCBDSs-knIgxeGMpFEcbW4sWmfLj_t4F1DNtwdsVfOIXDElHa0V_j0f6Ml_8MxkHIkCcPbS5mFqzAMebro0oiEAc1tc0EdpKT-fASDyxXcXqySnfU0HNhMFL00DcDdTyzk4A0P-GxGTjTnKe294JEMabfm2mmLc_-xjdTUDcCOjz-0Cgw6pX5LtJfyLvXX-zzfkRarxGgqlax--qUGhB3OBiX2bo_3F3hJDz8Y0VBEhRLvxvd1ZKjulSYhmzf7qkqrclNc3YbqO-o3MoecPXHIGLJvaUOkOqiYCNpAPk132mL6RMQPkPeDOF8ZZuEX28BkMlAuWBZfKdZ9uhTXP0Qi3unDu41HNKyCq-_RdGLO8RD_jmI7aCbfR2sxYN5WUsVEfQbXiZOFi-cDlHUU88M5WTBtuJtMAo_FSesIznphEl3MhfNKW5KWepLgwDcGvEka-MImecRCf7kfyjSWnVXBrTwKKIBCfa2O60DVHqbS5bIzn2YdLtVxiqmEGVryqgEHLy5SWFVGS8GIA4GXiRpZ9-AYzeNXFBUrV_QijnBolV64LSVy_NZK7sJ4Hrul42bzneBPcXnJlkkB6i4LHVBLcPAnueNtaNAG5mWr8Ltwl5Qum38MAThiTYAaMz-7PzXAjwL287i3OD_kDbJLzFCO8FX7_KY_tWBpRDMYjiKJQPhn5tACst77bIPUg1k3y1xJ7ei3d91aqsDQmO23hnEvLQQxKtMKzMQ5btKC6tpjTSy2xhh2_2bbfcSmZJ05Ib3rc0MqzZEhgTbElE_lB0O1v41J5RlRoO9uLWQlulmJrJmZVj5RpFymBDm9H6xaGIOvGTbcqMu23T8S4KS-Z2ZmjAQ_gs1qD4eUzlpZKnMDnwVbHoB6qiJc26fK2TGALirbtwndLFvK23LUeW7qOy3Cd88MwSSx3GbgJh1M5jy20FLDhAQYi4hrWh8NlOM_GurHCZC0O7J23yB_yq2_M6rO4qs6ygPsHHyUekCPurA9d1dpJlvw7JOpuAIVQXVcFA-PYr432nAHGuZ1C790VDijsDpX_HYE2TPXNC7BTfIv5D6X-nHC9Z-HlJ4AYEmHzXx6eFo21YlF4oDaRd4tfcoqs-hrafuNbh9lDa7XJV6W8uLTCVw5PYd6s8Q4SMw_sXYDOJbREO1yzwwW5RA7VgNhjp4DJnnXDEZi4MZHzZq4VC4d9008kwFsubYx-8dgD1xGLRIT9c8xhj9KS_hCz-vZ1IJRr1t87y8UgZla9rnIoEfTKSCQYOeCLVQz4F26yaf_-J9lSklUGjPWKVQr8J39LE4nkLxfEu9_dQSJGdYgBtWd1oDlePEGbsu9CcdPHKQrXADcyvbALH39Cy0yx0xO1vF_7vNsA6P2THfhn1fNOb9StbDDckZ3iHOScleVHeBlmx5QX2eF4c7HyWbx85dRZEH8SylGmCt-Muir-xHrxkJd85NBXkKl9a8xQT1AkHtTrpHgvRsL2A2z3Df3ChBc_ffY_A2FjvOT9YS6MM9wMwXX8wd0T5ed1jZJiAyHj5TEfw1ItXugHeNM4x_zYmlJSiPURbt0LfzWu8Uw5VJoW7_tLybS5I4vTjY0xqqD_VXDQ-RBOCza4YrOtxh5ywxB9NPhIOWTxPd_YAV1SyJh7koTH_JXdS9op0rzm10mz93-wi_U7PFiXyqscJ9N_DRU9_Yuc45k3zz1Zy7LJDbCwbRFI9mMEaHU0Dx6f0fntLrO8EWqMc3J5WKfpAbmjRPNDNXtThLshMA-AlQAkwc8YpEQMHxu7AF-DX71pOPzrDkg1-O98ETZE-iFlsu9WnuY2cs6DeDW_1DQ6xiNbyMAsd4N2sTc5psuwdNz-AjsCkt-guhE3G3KTnImYzB95pjWEZZli-3Wg4K-zel1KQYHfQlU-_hH0b_LxzOK3Y94pLS_9_z4jyUnhXCKWIMlALyj7cHO8lZ0kT4jC7xxHwamUWfs48bx3Op1ovMTt_A9xS_jc48JRiS0ZZjnX27ejcd2RvpTf6rbxN6Ld1dd4h1bJ7E9MRNrOmVWsB8-O54jqZsBuqVyliGB8aEkyy7vUn3y7q284NCQeU1bjqKV7TX2FTSKIhuoVe-StkWs4snK-QrRfq2ceOSj1deZnnnHTBeHd3txiK-CpKfeFCxETXVDqN0orQ8lghcHP_tfy7pqUsDkVfuSjJAYarMqSy78XEaeBuBK-jniyqjNo_HWaDV-F7pJiA7CtgaNJyeRUB3FBYY8LxGTQJtPyyt_VBYgbwcomdP1prGYAHHQBy-L5ZzoP1S57xzWq4pwqxDPfuaNf6y1KLmldFZRM8fBG2wtv5N5DyTaOKV1JuXfvzNR3rzoJUy0XWGstnFLfALmkRX4L4vM-DNm_xvsF0hIAyzJpF97R8sZdcVjjUciIi7V7lnAd0xQaF_zTorgyq6ylT0UfH9lu-XjPGgaR1xEwtMXR3Uoijebm4CuSHW5MH0FACtqbqlyuPu0BZGnBjMLD6bn0FurUFmkZR79Lahj01w_xBRDDP1amt8KDkMaNCsiWvj-uBV8xzftkT_dVQ77YHfMhx9iXzlm0Fl_EUfHIDDaUD-FYxSRGX0AsrPN9pLBLcVE3roYQi81xws_uZ7NpW83p-2CD_3ha8SX9IJ75dw9ABdXCaLm4F49aNH4xQttE_zpT9yoV7f48Tmlz2CeEmaArSjzD_MyXnxoqckM7nmooMQBSPicfKpVavgI0ww7VCA18liQfb61jeP4zXzaJp5f7ZdHEFTJNIlaOeDWQy876cB8lV545mitnxnCunC-Y4vfhxM3HaM3cPqXAqYCGM3YdXD6rird_MRMQiIOCFvDfB5Uc3PwlPAz7XpnfG14dRCUFWnVqJFsgM_PEDa_sySIhkDB5BsaphM9IHqliVVy8VKAF5z0x6PVSNWjS3csXM_kKvYf0Iou0s6wBtCRvMeM5aJT7sD7PD4fWSx2fjjxBquAK7aPbGe2MjBSlny76Bo0fXHm1wKKmD5gBBYGBQcNIJ09GRR6ZJ466mNdietoigSV2hYuU-YPTUwR4ZjCq-yLE7jS_DCfpGEYVqDD36lhQXhj9v_8HMDlb4btmJL1XMvYNGfF8wUFDnVcE_qSnElYgYScDlemYYb-dny5nYacBS485fNsD2FZFNuoGSOqlrjo-Zv6DttSQTb3WE6LyLl0gK0jAOWCSskvwoqf1PtAh4pVFKIdY6YMFwLR9GCa84A68d78UcAIGEgO28HSw08pAtIKJQFtE_M8eCvv2uZuMR0pAWffiASx3GYJCW8ttdFh1_hblm0BuGPvY43ZWgQ-X_wRSgqNBaFSsigIj6R1N-oVcxLB4P8usRuzoqw7pyoSHj_J_91vYHwPR163MyADpNb2rSlI8CY2C81WeYDnhXpD-e6X1JAm3g2I01ggTMdPzUsnC5ZhE-AOiC9oeKp2QJ67fB6e-99vdSdWrK_6VA4HD0Fgf73kVC56lSTS15GJperVHsIINapUh4eLpONFMUYcEDJW6Dd5v0zY1-8RH-6nDKtdhHOp6ZnDqTgXiaUBRpIt44dRY5c7OIPfgrx6Tdq1gYOFj3yY7tDJTsCKn87lrsRblHfm3KG4Dl-9LScPiAOONqx2CnPYEzbGYmo6tKzOer4b_nBaZyQO9jcreZ-6hUvuu3-YhwGt8JugMBVZJuLBlRiQ5ebn6n7NfYHB2pzYA9ZM43pm-Jmt0XQ59HkgKje6JqSlyCxP_h18noi60HdptcheHQD9BIUZFTQb4VbRPow6GcBmjeYsptFMSk9nPoma-z19gHKVlFZJbM8o-i6UGgH0g_odQ4_5Gi8LBgs-wU33Trmf9PmcMnmr8hrZhbx9n5lIrxSWjBcZClp3Lu0otGk4oNFUXK5nfLg6GJuCZOyvX9L9RXyaYLBBUGY3zlglh1gH_7t3aEGa8OynDSmiRavjcp2vTaCjggdL5Xch_KF_4Nw8apbMMFeU-YYHdejalYLvQSFEnjnG98LG7AtAqAnyp5KRYCk1evU-RyZfel4CzVDWKsuJoD_TKzCtUz6rgOCgX4nAVgC3fD0y_NyH68UDvrhOS18VLZqjZ9Rq8tCNg8NF61G93MezEU3DrqiFvsqCJL49mu2fOgaIbwpLsZ-4stawJXgRw9BwXFSc5brfFQPVGqzHiKdEVn_s1_aTkFV31h5-o1w4o-But0vUdfo2JKkLyfpSKijhZV_OyRofKkBGfpNVhMGXrXOjLKBVt0AOKN2KwL2plpwVDqih7j8-Hn-XVwJMSjojuodLX46QBor2KpEro2tFYUqbZ_3_IusoPfruXQGxKpw5BtptFIn_mdNpVNyyyHaycRE3_bhZHamWvw4xAQeLQFwzZVmeAopwNduQIX7n-inQo60-tMKBFkvaV5iydtcf1-VU0LYnqwlPU79AiBgxYBnRLQsAUNySHtT0z9FTnTo1Q0zP3RGyoEA9P1cqF7g2DfvuQPfgN0iurfEahVX-kG7UmuQll07bGPeejFxGPcAAKtynhzfp1qxS8VQhpspqed-CsDfhSH5LL7SqJLQ-fkrWmv6vzss8HEuJVWOU2vkuuD3CecOZqdCjxM0ArvcFXv_k8gGrJeLg-KdXjjpXu7cib5QLfSioKpeQJJaeMZS4ZbMyPHLo5_QdL6zX7_hdnz67C_ZHhnSf0ub22CQQFO51DQ7tVZ8uje4Cfgrt_D00dXYMd4-P5i3zTAVB3iEjSeTjkVbyN7tu8tQwtTQeUANxqzNfY1rOpxc6qTuUXhgdd_Sal-UaA1g27a6IOk8PJvgYfF7onuXslYJ5zxEU5jJJlAvb3hW7ZLfoJVlmPMP_2DD87D68H_rbrrjWOF6UVUYfA1gyqqv0QdRGQ928T1hGI4ETIIzAZf2m7jIN0mG4ZejvDPjzAjzV5XJV_mlQ1ZylMWNxJ789szTltDn6JEflzrDMFVRUosH4pJOIAzPEgH_e48SOrTXSjm4AXVH3olCyXQs_7a7HFY20j1Xqfr5L2sFl7Pn7MWm1AvMY9MOFO8dm99ahBGxG2T4USEdvNnA-qA5h5JzUd6MWxy-_uIHwtMjz2Jls85xcMvHnzZmKobYDV5U3zugb1vQMwmgq4wns47PRkgNKOkTtB2iSQBsCRC6QoBjllz0DDRdLgo7zMNw-frTIlsd5xrR4HJROdjqaI4ilQUMimu9Rwm-vPmGaDvnWle-pIU_djynUN8Exl3lpXo3pHAAzVDlu71fWE1-XMUgkbJHeXSyloFLCLIBhoFtReBBO_-hvP3bAIOmdkMVCjMbvHL7bilNGVkk3ykzFsCps2T6Sj6lEhkV0Evmtf7_GB87Y9_egQmmFOwR-AyDUC9xnV-7z_ipsE-2AaONQWu41tPPXPNovAzHkfyKLTvbodCoy3H7oj8VGFNKtZY_wXsIef2j1m49rdGHCircKWVnafSMfpKzYsp4HA3A47P2MHySdaoH0E1-GSuNFMn2Wq8CgxbWo41dts0Sql0fFm3dwwWd5dR83OJPG-vFnM987y8MyautBZQfy3puYLQp6qnrd1277xQFpeP0wWEhMPeOB-_JgG9QyZZPwetZ8eWNmjhGW-oo7Jmc0TsVREG8nZUMeyR6MiMmFotz6-lfHyGVOwebXiEig_m93j5BSZvNOiay8tecnQrwlnnSoVCmghGIhwgssZXYBKQtHF8nz9beWsn6qv6_8ooY2lkmDlFQO7oaPRd6tARVyX7-eScyak84f7MiPcfDB6XSriIKAc4hHtwQoXDMt_U9Akt-F_al-IbWE0HRGOnZbzncxQR95YKhnQhMj2pc5vFe0s_xeroXRpmvI1CFvZIsc4DnrnWhdae52Mteu9c4bMkDUuILbp8qJqZwhNsw7S1mC92Q1d7L0gaO6DC_z8cv7zsYA_NVNrOwmXIZ4SrreOghjrG6qwC_TBVIoHRthYlxvlRCmlsQq1uQuknfBQyxdoL6OpmMiK4rpIWPJ5Khwt-jcRh6u3V5huP3zKJZx2l74Yx6b-BebZb8G94Fy0vCTvKlApQZJgRsS_uH1p3uydbpKxaGJWYyuvV9XNKboYTKz0rN0oAo9SmYVHhpHCK41d9_VdMPtvqcy0FHpIH0nAiZGeqT_3qXIPuAT1FO68vJIphawjazfN6wYmpSS_4FpSrIkU5OpFsDGJyX0oDS_uX6UsLZGxafdD6ALG1j1zYqjKa3PZ5dZ1vEh1rZvHY7V0TQ3ynjJckn-Yz6uXubRoK8iwgQ5rHBpRaO7rkuoEpcfyp1eeSQ7YRGu9kZe-7kKC-ME3saDI0vgM1vu-He_DIqMQqOSninkJgsZQ9c14YY-7vs_quV2xH7TaNk5ivHe7M5SocjIU4nzoMCgS1mcdC983Z5blpuq3K4M-QEl72ilHqKG0PdAdY5TawEntuKNK_KYJI_6F9G1xG-lf7W-w4X0tPJ8x7G683sRDtiHZUfqv44OQJ2VZdVyUGLG8-XQyJixlscB3v7a70ge-Y0-8P19Ejl7JXMCYa1Dn3KCNkJ1alojSv9FgiqsM0X-j36-CbRhwNXEymgaKfcNklWGEO16N74bMlXPdv79HAwwUOo3bMl6igQcYpC30QZoSTsdlZNyPiIHvMnRnshpZfr-FscVZhDQ3NiOio-BKXPKyXYybgSpFp92IKFnqIDOTG9BM342rY2SWl6qu6BfmiZ2X6YkrZJikAKpRepFslBus2qt6hfJje7dIEIsbnWXTM50cY4ooz_SLU7cpSOS0tALWjTd7Y8Au2ZRAgrtpxgXF5ZgaUJ14NOJB2zkUgHzi5NGBf3-dL5ZJcFxjhRbNnYMFcs_XDzLKmMtQkNi5DFdI321sN5WK4d3wHFTKbCikmYXr06yGKn98_KFt5Feljz_3vQm1j2fKcUiINlT4fXtg6-tY4h1cg32GLRs64cI2SXwf0fQmDmrFSDFJccYKvM6cwrKp0eNbUziy4YZa6w1z7EUVFv1JbiMJ4QI_hO9Swwvaw6kuyGZaPaaNj9udvUZ0fHrfVxXZSTlNjGbodEIqJGQHUj2nf16m4OAbiFaa7Y4uf4WxcfZMsE94vc7-kysN_8FaWX-rM1shyDh6acozMcFMWmfmeuCBxyxul7J7dM3O1j50p-BcbvSnWmOGeX6i7OzC5QtadMdFuEtw-xNaZfNF2yZBxML2gkBpLkdsB7P2QzzLHU1McadKDozHbBuFeg0lCGYQCSse2mECVn5_eaQ7WIXIlifb2N8sq6QJEUGQr-yQ6BS_KQ9ZFBNBYp_Qz4gU23lQL9e1HUcQzz0F5w2M7Okvy9fadqkKfdgEJAzHDuuvS3uRAOj95EW5leTz0O7rej7h7nbfw4r6Vw71oG2cjuC9KMUxLFHR93JzB7RC-AAaGaEtn46S1_bYDGdPjdVo46PDKtXoB9ZwrIMu10z-aW2rQa5vvwR-Tx4BcAJZyTx_v05oMENXZRmcI9LDGLECr0qkskjWEBmkTGWprCIegCqQhBpItOjxGarLd0CkGOxy2EgHs4QDUOhwt6iUOFiC71vlQdZbgMo_tA_gW1K8aYqeun1gdRA3kBfD5m2FYADO7FM2HVXQ6c6UKOAtONSucLst6_2LDxDoPM6sJC4WDPkf6DXl5h1I29NeUxEzrj2RpSAtOd48M_oa9BMqRz5SMKw22SwqYl0n-i5xHm9vFQ0GRXmZwZCJbiGhfDPFp32c0oucvbM-LFRKP0N-IvhghZ37ard7vnx01qW1IPcrPBYuxuJawHNvktrVUtTY--uliUaCyGWvo_nzCKiHzoIak43aK8_4uJmFSufSeUgkgiyFkoif0L0qdusZ2eUB26lZ4_8-lrzNR2AgWHl9TTLlwiVGp1GteTSUoW4VrmtLgy3mUfoumgMrKkb8HcfRMfepoYZadm8RxjxEQUY3kFvB8RpnrQKd7Cj9OEmFPu55a52zpZM2cKjLneRuUr-U6I_tciHrHzHRTG0RX_AGlw6DwRfhnstzMp9WKHqcf4F8dg5CaICu58TT38Ulo2z2LL3bJilBjJs5oaFftx1PtuAj-R--yGeFmsNjsl5mH8jzDxfVezJ2hcQTdM3b94tYIRA9HlYBveJ_Ng9yHzFbYD-6kM0j81NaJlmu9Ow-eD5_NCN8LlBrdn1NuivQjps_It86E7NYkBhpPAp3sm7smF0P47_cglAUCKSPNArRGfarPAkar0BhJ4Oe0w5ipcEtMHf7ReQFn3uzpesy-Z3utQAdllqyKEQiZD6KmVxTgfx2hlq5QGUd3YLa6d9nAUQxnkTFDEvRJmK1oOb7k3S1apcGQN8gkfWgRIq5-16KGQnlnVbKSyvix8G1Yj86e7H-9U8ll-VTZRS9hdrkOCsfY8Wg3pjwcluvdK2OfF2tL8j9qk5u54j1PuOvoDOwCezGqIAy1ILZQc6uKflWLeQgCVPiFatWKEF6wFgYKvJ1OWXCnz8emKmAIEvD6bpj8EUdHfVH7C3cDTcF8zOG_LhaKFYDeu_u8SUpoWWYIQ9usn6QTl7KgRuMjkHOyT3Oz9JHVbeBk66J2RZc53gMiKCZAwe8-NOOJ2qdGdhNHPvtcSlOZbXiO_ue3BNlHOE-EaDw8oodEjMDC2djLu8k5G6Qrp-Cm8OW6plLPYjPiwMrUFf0XZELm7gmRHIaMmM6GhYQ6-IKKZVyYApEgLmF0LlvgkhW4ikOz6A4Gh8nYDlwNseoQucku9c2kBVvgJBSqDAGC2OE6-ZO7hYeu2d23bJFFe8wAymNIvyG9dg--HQe_PxzeRFAhRxHNlKHcBABGXCEG4qNQqCAKIWQu2c9TXYZyckMTqU_iJOiLsVMzl8Chl0gtipVPufssm_v2dz8F7HSHRagu5d53l2yYRj242Hg5FYsS80l17x-alBPngXnssvzHb-IZTAE_0rc0MPthDkP7O6u54tPD5A8ODTmMpBNMlSQwQSJ9QxDGNHowupKlwkbVLeAvEKrSE2HR-T1K0cmE6MjEfYVyR36nOUNYvp19wHDy-nly-AU4R9qzZFSDB1QCBIk1LZs49Srr_-YG2R9U_0_EdItwbH4A8QuNfbImZZTKPYliAcCRNKd4N8GTcnBQNn0oftHdjeKdhCGkNLF2KQ-NEgRaUCWsjVE7Q6MEMWj4PbT3eKbyIjrw4Ybkwaxn9Yin8xFQqsvJ7mtBdBbvSnacDB3X5Y050URhKZDIfN3YNKOvDa_a2JyL_IvGATH0dSQpaaxGPi34UQsJFupzElA5uQN55jV6YhNpOIAPhifwjSZPK7RYCP-snPJS2sTQ5QfUSqc0sGrQir5-Cy4SI11dq4Slh_PF6ZB2x_te6xBLe4ZkVpPNBMtfH3oHpyfV5jjcicehPJfCwX-uvQxogOt8xEee1OjZ_XWoHpW_-0qfqPX2faV350X1THeZZfC1VO9m1NDfxpSgJvTR96Ty5dPZJv0XvClFkWHJIHUn0cpEcONsJQ7zp4XGIlmgH0fZH3d5aFIEAwSPPqsvXAzT_bP3VtCwl8BOKI-hNoVIWpHc8VgkC_8uiHfmanOPsi5EUyRIBlDzoMLX-KI5oRaoKOE5278zj24xKyzS-3CiBp58u-nnNOuY0vdhH8s_xtS_ChrVafb0BLM-PDonK-sLQxqQpeQHmFIkf3mf4CHLlzxdJj__18yaer9ky7RjRd98YMTGSanhqI2jxEftnmuq57AaM0uYwiO0yVAqTv2H22m9utt24OC43LkZuAVDIB1EJ_sGwqmKMZd8B3Kr-eqYWLR9IM-40DvvpOMwbridLH5IA7JBQTv9AgezFLgIfnLh3RmxDuY_CJeDfhNrJgv0C6UfYydX2l4xohQGs_IUElRDLieaG39pHdp0-B8Ascfm3Wd2yB7jdyGdVXcKUAfy4wm9c7_wvEt9dUG_oIvZP2fdwSeSjXhwrI8OAI36NNzDUsjp14awyTb18hwy77Kb-8GsjnIqNtDOW7desK8cpydLO4UZuwFgn99VHcToVkEhBVyuXjYfwYCURaX0KzW2lLHRn68dVZ5tt5WHslFf2TSRGtgkvxKyqGdMzp9RxL4LFKWw6SAXXg3yhr-ehZcODBKT54tzNb7c8S1J8SGZEhRxIRKLZK6kWHu_iJmLCVKg_AYOBxF8KBG0XcI46CjwtnvDu40L1Jg5sKvpMkWijFsPCA6CQBPEvNxdIIqyoTMctfgEU-asZZr7Uem4okovkAnv7cf4XzYymaqJiVcQjKHDQs_NCWKzVFKmJuY0lIil3APxG8UdbZKjuoFSYmswn0n9xpRIcpJF0fABPGIFU7GXhepKvJ4PzlOiJv1HJufBcxMw8YhzfQ0J1cnnosUbXULWvUcmsD4LU5qHsea1e_qWFbGPs34YuZGuEny2ihEf5gBCt3oievF_9xpEEv2utqm3Eq6d1TdVwDJucemReQ6OMSvoRVu_38qI0JPG7qluFoisQasXnkAW-YZF_idxFPgAAomLBvJO5eVJF_JpGMYbYE6fSjh3mZVN2c6p_NrjoO_2tXsLmtcBPUWWX6EcUfDrmtfnFGO0-MmdoL9Z2ooaLWvdGhoLM53OQLIUuFFYxwj5njexz5bH_8wt0aE2BN3qoUEZ_MoBXCFuLWcyM1QNs-6LUC_0iVcAl65AHXEH-vMN5qI9etZJWw7aHdFHAjp65ABugNZ2loiHjD7XDQxIHkCytwhD4Rs5khdT_CqnepT-GgYQpHnSVW4xdqq8VH4yJ9loqbLvHFsonJ2pojejS2gKlhgapzvbekWxvktCKexHCJ8OjD0FgIfwM8kKsFw06J2qsNHPa8e0L-phhKXFKE73qrGurxvZ5Pg1yrkxoMdu58XOCNfU128b-T7pvYNc6l_SSwkO0Uy5mhuLFGKJU6oDrn530mIaBA9jJfmrhFJLRs6qSSY8rYCeKS0BQqlWXloAYT17nMtyEJ1XjQVrWa_BNX8O2qYzKNv_xbFxphaDdHUD3un-dCw5lQPeRh2DlpiRIailmwPVeYtZlCHXsHxmgT-7PtrtvdzF6Iescd6qTf84FiUxFmfnocWfkcIhyIJhDSQ4S73MWAdoXu2zLjcniZFcZPA9Pk1cz50Fm_XefB97PNjJCftGDs1cwO3rnv7Up7T7fZ4hFM7YoITfZEJ0krPhzO-2eDUjA7VCHAA_QsMR7argGbrVpsxxK-4Q6JvuJ4QZwvPQ0ExQHf6Gue2yQWNZu5080AkuuyZs9dBZa8bKv0-QufWXrJWP6aArvYRHsmHq9AttFQvODWqXvdFRG8171HAsM7GBGHX_j8zB1yCQn66k8Y7FsgwKD-RSWQUHrp3895wDZQH_9sR2y2hLZ-YFd8HH8vKUtAHJ9wBJ8KWDvfKtyFEAAg60NOeDgf54DnLk49CNiev2i3JugdM4EndW5LTFnCKpugYulN2PyXYNL-8v5ih7iVu5xWvgBpONfKpRE9zTtUpdnNwKqX5EW41W85Wu38QHvxa7GKD_gSUeENgCpQGaeNNv2ex7FWVZoyH01oqm0SQPJKYZWmOVOi_E6eVhUJNfv7greqrVBE2l9-E-QemKBMC47BQXbqKkvIPVr2_KKKXzQVP_PTo8URZLkSR7aZKBsr54_tklso87lS7s-ZQQJKrTMzewhvuOx9eMCWsFUcyKNfl9fcN20UIpqvaVwfi6plFni-RiBx69nmSuQVuGkTlYRCFzhRmWTv0n-2WTH88sm7Lutt2guD6sNBT3UQe4RWnB0tfEsPvgauLwDM1DYzKbH9u7kbF9UEg_FjOS0ZoU_8jNQOKykeCLFV6qr9tiG7EowNLnoY0sAFpdDg-bwBKMVFHwq2fgfp0J-3RslqqbwgjVV-zUsESuZxTfhB7Iw3vi1BD_4WAHYYM8NUKOPTAPqf7Emzy2qsSw5pOasjlYEABSS5ZHx2vbDEZfBPtepVkWZbCYCC-ZCn7_oByHhFlscy2o2d8ocBYqCOZpVAqJDFBUafwP5fYfS0ele_qii9gPgKLhvYBQajuoKu4aL1xSqFA1GMp4WOyxLB5FLDVPXg-hs4Opfhe-kMQuo9rL_OoBIOOEFxA6bMwlYqsOSn7_GhrBlmLAL6x3DO0aOMQvJiWxhN9ShfQlbbz231IMWdfrPbjOaXVoZVZr8zRo8TOgkk9QjPI3hRlyf78wwC_6dh6whF-a7l6PQJj2K-OHrPnSK3k6TIONA1y0GhOlPZkb3h6FAong8PUIfBJyiL_fkKNrI1zzZQRBFQ6SGd7ZfhPJgD5OdyD_1NTi74jxv